/*--------------------------------*- C++ -*----------------------------------*\
| =========                 |                                                 |
| \\      /  F ield         | OpenFOAM: The Open Source CFD Toolbox           |
|  \\    /   O peration     | Version:  2512                                  |
|   \\  /    A nd           | Website:  www.openfoam.com                      |
|    \\/     M anipulation  |                                                 |
\*---------------------------------------------------------------------------*/
FoamFile
{
    version     2.0;
    format      ascii;
    arch        "LSB;label=32;scalar=64";
    class       extendedFeatureEdgeMesh;
    location    "constant/extendedFeatureEdgeMesh";
    object      Core_Radial_Fins_intersection.extendedFeatureEdgeMesh;
}
// * * * * * * * * * * * * * * * * * * * * * * * * * * * * * * * * * * * * * //

// points

2440
(
(-17.4991 4.3 0.0496871)
(-17.489 4.3 0.621088)
(-17.5 4.3 -3.84085e-09)
(-17.5 15.8 -3.84085e-09)
(-17.5 15.8 -3.84085e-09)
(-17.4899 4.3 -0.571401)
(-17.489 4.3 -0.621088)
(-17.4586 4.3 -1.19177)
(-17.4745 10.3251 -0.892779)
(-17.4645 6.55828 -1.0797)
(-17.4559 4.3 -1.24139)
(-17.4745 15.8 -0.892779)
(-17.4645 15.8 -1.0797)
(-17.4053 4.3 -1.81064)
(-17.4009 4.3 -1.86014)
(-17.33 4.3 -2.42722)
(-17.3715 11.0336 -2.09518)
(-17.3901 14.0536 -1.94625)
(-17.3239 4.3 -2.47653)
(-17.3715 15.8 -2.09518)
(-17.3901 15.8 -1.94625)
(-17.233 4.3 -3.04075)
(-17.2359 4.67027 -3.02258)
(-17.2569 7.33016 -2.89208)
(-17.2251 4.3 -3.08981)
(-17.2359 15.8 -3.02258)
(-17.2569 15.8 -2.89208)
(-17.1142 4.3 -3.65045)
(-17.1046 4.3 -3.6992)
(-16.9739 4.3 -4.25554)
(-17.0627 12.1155 -3.87744)
(-17.019 8.27132 -4.06342)
(-16.9625 4.3 -4.30392)
(-17.0627 15.8 -3.87744)
(-17.019 15.8 -4.06342)
(-16.8121 4.3 -4.85528)
(-16.7991 4.3 -4.90322)
(-16.6292 4.3 -5.44889)
(-16.7938 15.4467 -4.91999)
(-16.7792 14.4585 -4.96687)
(-16.6145 4.3 -5.49634)
(-16.7938 15.8 -4.91999)
(-16.7792 15.8 -4.96687)
(-16.4254 4.3 -6.03564)
(-16.5157 9.79216 -5.77808)
(-16.4557 6.14502 -5.94912)
(-16.4089 4.3 -6.08254)
(-16.4557 15.8 -5.94912)
(-16.5157 15.8 -5.77808)
(-16.2008 4.3 -6.61479)
(-16.1827 4.3 -6.66107)
(-15.9558 4.3 -7.1856)
(-16.0756 10.3703 -6.90873)
(-16.1407 13.6693 -6.75826)
(-15.9361 4.3 -7.23121)
(-16.0756 15.8 -6.90873)
(-16.1407 15.8 -6.75826)
(-15.6908 4.3 -7.74736)
(-15.6908 4.30161 -7.74729)
(-15.7377 6.49795 -7.64871)
(-15.6694 4.3 -7.79224)
(-15.7377 15.8 -7.64871)
(-15.6908 15.8 -7.74729)
(-15.4059 4.3 -8.29936)
(-15.383 4.3 -8.34345)
(-15.1017 4.3 -8.8409)
(-15.2821 11.6735 -8.52195)
(-15.1871 7.7932 -8.68979)
(-15.0772 4.3 -8.88415)
(-15.2821 15.8 -8.52195)
(-15.1871 15.8 -8.68979)
(-14.7784 4.3 -9.3713)
(-14.7524 4.3 -9.41366)
(-14.4365 4.3 -9.88989)
(-14.7329 15.089 -9.4431)
(-14.6853 13.3579 -9.51479)
(-14.409 4.3 -9.9313)
(-14.7329 15.8 -9.4431)
(-14.6853 15.8 -9.51479)
(-14.0764 4.3 -10.396)
(-14.1181 5.74396 -10.3377)
(-14.2187 9.22066 -10.1972)
(-14.0475 4.3 -10.4364)
(-14.1181 15.8 -10.3377)
(-14.2187 15.8 -10.1972)
(-13.6985 4.3 -10.8891)
(-13.6682 4.3 -10.9284)
(-13.3035 4.3 -11.3684)
(-13.5882 13.2765 -11.0249)
(-13.4767 9.76191 -11.1594)
(-13.2717 4.3 -11.4066)
(-13.5882 15.8 -11.0249)
(-13.4767 15.8 -11.1594)
(-12.9326 5.53919 -11.7874)
(-12.8585 4.3 -11.8705)
(-12.8796 15.8 -11.8468)
(-12.9326 15.8 -11.7874)
(-12.4635 4.3 -12.2834)
(-12.4292 4.3 -12.3193)
(-12.0197 4.3 -12.718)
(-12.2658 11.2126 -12.4784)
(-12.1278 7.33702 -12.6127)
(-11.9841 4.3 -12.7527)
(-12.1278 15.8 -12.6127)
(-12.2658 15.8 -12.4784)
(-11.5608 4.3 -13.1366)
(-11.5239 4.3 -13.17)
(-11.0873 4.3 -13.5386)
(-11.3958 12.4262 -13.2781)
(-11.4831 14.7254 -13.2044)
(-11.0493 4.3 -13.5707)
(-11.3958 15.8 -13.2781)
(-11.4831 15.8 -13.2044)
(-10.5998 4.3 -13.9236)
(-10.7679 8.60263 -13.7916)
(-10.6409 5.35268 -13.8913)
(-10.5607 4.3 -13.9543)
(-10.7679 15.8 -13.7916)
(-10.6409 15.8 -13.8913)
(-10.0989 4.3 -14.291)
(-10.0588 4.3 -14.3203)
(-9.93829 12.8731 -14.4018)
(-9.58537 4.3 -14.6404)
(-9.78704 9.19899 -14.5041)
(-9.5442 4.3 -14.6683)
(-9.93829 15.8 -14.4018)
(-9.78704 15.8 -14.5041)
(-9.06382 4.39716 -14.9688)
(-9.0176 4.3 -14.9978)
(-9.06382 15.8 -14.9688)
(-9.02948 15.8 -14.9903)
(-8.52268 4.3 -15.2835)
(-8.47964 4.3 -15.3084)
(-7.97488 4.3 -15.5764)
(-8.08892 6.89812 -15.5158)
(-8.25712 10.7302 -15.4265)
(-7.93099 4.3 -15.5997)
(-8.25712 15.8 -15.4265)
(-8.08892 15.8 -15.5158)
(-7.41704 4.3 -15.8496)
(-7.37235 4.3 -15.8713)
(-6.84986 4.3 -16.1028)
(-7.18225 11.6159 -15.9555)
(-7.3067 14.355 -15.9004)
(-6.80442 4.3 -16.123)
(-7.18225 15.8 -15.9555)
(-7.3067 15.8 -15.9004)
(-6.27404 4.3 -16.3358)
(-6.44131 7.92674 -16.2687)
(-6.30493 4.96987 -16.3234)
(-6.22792 4.3 -16.3543)
(-6.30493 15.8 -16.3234)
(-6.44131 15.8 -16.2687)
(-5.69032 4.3 -16.5482)
(-5.64357 4.3 -16.565)
(-5.09943 4.3 -16.7397)
(-5.30627 8.67142 -16.6733)
(-5.48544 12.458 -16.6158)
(-5.05211 4.3 -16.7549)
(-5.30627 15.8 -16.6733)
(-5.48544 15.8 -16.6158)
(-4.50211 4.3 -16.9101)
(-4.45428 4.3 -16.9236)
(-3.89912 4.3 -17.0593)
(-4.45089 15.7297 -16.9245)
(-4.44016 15.5075 -16.9271)
(-3.85084 4.3 -17.0711)
(-4.45089 15.8 -16.9245)
(-4.44016 15.8 -16.9271)
(-3.29122 4.3 -17.1869)
(-3.57939 10.2217 -17.1272)
(-3.39702 6.47415 -17.165)
(-3.24255 4.3 -17.197)
(-3.57939 15.8 -17.1272)
(-3.39702 15.8 -17.165)
(-2.67917 4.3 -17.2929)
(-2.63018 4.3 -17.3012)
(-2.06374 4.3 -17.3771)
(-2.54042 13.9776 -17.3132)
(-2.38863 10.896 -17.3336)
(-2.01449 4.3 -17.3837)
(-2.54042 15.8 -17.3132)
(-2.38863 15.8 -17.3336)
(-1.44572 4.3 -17.4394)
(-1.5877 7.17086 -17.4255)
(-1.46038 4.59647 -17.4379)
(-1.39626 4.3 -17.4442)
(-1.46038 15.8 -17.4379)
(-1.5877 15.8 -17.4255)
(-0.825868 4.3 -17.4797)
(-0.776269 4.3 -17.4828)
(-0.397458 8.17457 -17.4929)
(-0.588878 12.0278 -17.4878)
(-0.20498 4.3 -17.498)
(-0.155303 4.3 -17.4993)
(-0.588878 15.8 -17.4878)
(-0.397458 15.8 -17.4929)
(0.416166 4.3 -17.4942)
(0.465859 4.3 -17.4938)
(1.03679 4.3 -17.4684)
(0.54427 14.2206 -17.4903)
(0.486909 15.376 -17.4929)
(1.08643 4.3 -17.4662)
(0.54427 15.8 -17.4903)
(0.486909 15.8 -17.4929)
(1.6561 4.3 -17.4206)
(1.5687 6.06447 -17.4276)
(1.38959 9.6801 -17.442)
(1.70564 4.3 -17.4167)
(1.5687 15.8 -17.4276)
(1.38959 15.8 -17.442)
(2.27333 4.3 -17.3509)
(2.3227 4.3 -17.3452)
(2.8877 4.3 -17.2593)
(2.59566 10.244 -17.3037)
(2.4312 13.5916 -17.3287)
(2.93683 4.3 -17.2518)
(2.59566 15.8 -17.3037)
(2.4312 15.8 -17.3287)
(3.39988 6.31792 -17.1645)
(3.54726 4.3 -17.1367)
(3.39988 15.8 -17.1645)
(3.50191 15.8 -17.1453)
(4.10474 4.3 -17.011)
(4.15322 4.3 -17)
(4.70589 4.3 -16.8546)
(4.35589 11.5828 -16.9467)
(4.54245 7.70079 -16.8976)
(4.75394 4.3 -16.8419)
(4.35589 15.8 -16.9467)
(4.54245 15.8 -16.8976)
(5.3011 4.3 -16.6769)
(5.34868 4.3 -16.6626)
(5.88964 4.3 -16.4783)
(5.3855 15.0173 -16.65)
(5.47294 13.1586 -16.6202)
(5.93668 4.3 -16.4623)
(5.3855 15.8 -16.65)
(5.47294 15.8 -16.6202)
(6.47076 4.3 -16.2589)
(6.24778 9.10129 -16.3438)
(6.40738 5.66467 -16.283)
(6.5172 4.3 -16.2412)
(6.24778 15.8 -16.3438)
(6.40738 15.8 -16.283)
(7.04372 4.3 -16.019)
(7.0895 4.3 -15.9997)
(7.60781 4.3 -15.7589)
(7.36687 9.6459 -15.8708)
(7.20682 13.197 -15.9452)
(7.65288 4.3 -15.738)
(7.36687 15.8 -15.8708)
(7.20682 15.8 -15.9452)
(8.11684 5.32638 -15.5021)
(8.20661 4.3 -15.4564)
(8.18149 15.8 -15.4692)
(8.11684 15.8 -15.5021)
(8.70653 4.3 -15.1795)
(8.75 4.3 -15.1554)
(9.23978 4.3 -14.861)
(9.11423 7.24776 -14.9364)
(8.94939 11.1183 -15.0356)
(9.28237 4.3 -14.8354)
(9.11423 15.8 -14.9364)
(8.94939 15.8 -15.0356)
(9.76138 4.3 -14.5237)
(9.80304 4.3 -14.4966)
(10.2707 4.3 -14.1681)
(9.94716 12.2557 -14.3953)
(9.84973 14.6518 -14.4638)
(10.3114 4.3 -14.1395)
(9.94716 15.8 -14.3953)
(9.84973 15.8 -14.4638)
(10.6017 8.47254 -13.9198)
(10.7284 5.27555 -13.8239)
(10.7671 4.3 -13.7946)
(10.8067 4.3 -13.7647)
(10.7284 15.8 -13.8239)
(10.6017 15.8 -13.9198)
(11.2499 4.3 -13.4038)
(11.2884 4.3 -13.3724)
(11.7185 4.3 -12.9961)
(11.4009 12.7911 -13.274)
(11.5393 9.09058 -13.1529)
(11.7559 4.3 -12.9634)
(11.4009 15.8 -13.274)
(11.5393 15.8 -13.1529)
(12.1723 4.3 -12.572)
(12.2086 4.3 -12.538)
(12.1781 15.8 -12.5666)
(12.2009 15.8 -12.5452)
(12.6109 4.3 -12.1321)
(12.6458 4.3 -12.0968)
(13.0335 4.3 -11.6769)
(12.9488 6.81202 -11.7686)
(12.8201 10.6309 -11.9081)
(13.0672 4.3 -11.6404)
(12.8201 15.8 -11.9081)
(12.9488 15.8 -11.7686)
(13.4397 4.3 -11.207)
(13.4721 4.3 -11.1693)
(13.829 4.3 -10.7229)
(13.6066 11.4658 -11.001)
(13.5193 14.28 -11.1103)
(13.86 4.3 -10.6841)
(13.6066 15.8 -11.001)
(13.5193 15.8 -11.1103)
(14.0977 7.78147 -10.3642)
(14.1832 4.89506 -10.2491)
(14.2008 4.3 -10.2254)
(14.2305 4.3 -10.1855)
(14.0977 15.8 -10.3642)
(14.1832 15.8 -10.2491)
(14.5548 4.3 -9.71492)
(14.583 4.3 -9.674)
(14.7763 8.56936 -9.37109)
(14.6746 12.3734 -9.53045)
(14.8904 4.3 -9.19224)
(14.9171 4.3 -9.15034)
(14.6746 15.8 -9.53045)
(14.7763 15.8 -9.37109)
(15.2073 4.3 -8.65797)
(15.2325 4.3 -8.61516)
(15.2461 15.2267 -8.59012)
(15.2358 15.6595 -8.60902)
(15.505 4.3 -8.1128)
(15.5287 4.3 -8.06912)
(15.2461 15.8 -8.59012)
(15.2358 15.8 -8.60902)
(15.6544 10.116 -7.8162)
(15.7368 6.39155 -7.65047)
(15.7831 4.3 -7.55741)
(15.8053 4.3 -7.51291)
(15.6544 15.8 -7.8162)
(15.7368 15.8 -7.65047)
(16.0414 4.3 -6.99249)
(16.0619 4.3 -6.94724)
(16.0979 13.9008 -6.85996)
(16.1573 10.761 -6.71568)
(16.2795 4.3 -6.41876)
(16.2984 4.3 -6.37281)
(16.0979 15.8 -6.85996)
(16.1573 15.8 -6.71568)
(16.4502 7.0102 -5.96324)
(16.4932 4.52202 -5.8473)
(16.497 4.3 -5.83695)
(16.5143 4.3 -5.79035)
(16.4502 15.8 -5.96324)
(16.4932 15.8 -5.8473)
(16.6938 4.3 -5.24778)
(16.7094 4.3 -5.2006)
(16.7631 11.9406 -5.01649)
(16.8169 8.07781 -4.83222)
(16.8695 4.3 -4.652)
(16.8834 4.3 -4.60429)
(16.7631 15.8 -5.01649)
(16.8169 15.8 -4.83222)
(17.024 4.3 -4.05036)
(17.0362 4.3 -4.00219)
(17.0552 13.9937 -3.91445)
(17.0414 15.3043 -3.97811)
(17.157 4.3 -3.44361)
(17.1675 4.3 -3.39504)
(17.0552 15.8 -3.91445)
(17.0414 15.8 -3.97811)
(17.2222 9.5685 -3.09023)
(17.2537 5.98337 -2.91487)
(17.2684 4.3 -2.83253)
(17.2772 4.3 -2.78361)
(17.2222 15.8 -3.09023)
(17.2537 15.8 -2.91487)
(17.3581 4.3 -2.21787)
(17.3651 4.3 -2.16868)
(17.3772 13.5139 -2.05571)
(17.4258 4.3 -1.60042)
(17.3951 10.1198 -1.888)
(17.4311 4.3 -1.55101)
(17.3772 15.8 -2.05571)
(17.3951 15.8 -1.888)
(17.4652 6.13154 -1.07175)
(17.4752 4.3 -0.931388)
(17.4722 15.8 -0.973817)
(17.4652 15.8 -1.07175)
(17.4955 4.3 -0.360257)
(17.4972 4.3 -0.310593)
(17.4972 7.60868 0.0964738)
(17.4972 11.4913 -0.0964738)
(17.4972 4.3 0.260898)
(17.4972 4.3 0.310593)
(17.4972 15.8 -0.0964738)
(17.4972 15.8 0.0964738)
(17.477 4.3 0.881724)
(17.4752 4.3 0.931388)
(17.4722 14.9441 0.973817)
(17.4652 12.9685 1.07175)
(17.4347 4.3 1.50144)
(17.4311 4.3 1.55101)
(17.4722 15.8 0.973817)
(17.4652 15.8 1.07175)
(17.3951 8.98023 1.888)
(17.3772 5.58607 2.05571)
(17.3704 4.3 2.11926)
(17.3651 4.3 2.16868)
(17.3951 15.8 1.888)
(17.3772 15.8 2.05571)
(17.2842 4.3 2.73442)
(17.2772 4.3 2.78361)
(17.2537 13.1166 2.91487)
(17.2222 9.53151 3.09023)
(17.1763 4.3 3.34612)
(17.1675 4.3 3.39504)
(17.2537 15.8 2.91487)
(17.2222 15.8 3.09023)
(17.0552 5.1063 3.91445)
(17.0362 4.3 4.00219)
(17.0414 15.8 3.97811)
(17.0552 15.8 3.91445)
(16.8957 4.3 4.55613)
(16.8834 4.3 4.60429)
(16.7631 7.15945 5.01649)
(16.8169 11.0222 4.83222)
(16.7233 4.3 5.1529)
(16.7094 4.3 5.2006)
(16.7631 15.8 5.01649)
(16.8169 15.8 4.83222)
(16.5299 4.3 5.74317)
(16.5143 4.3 5.79035)
(16.4932 14.5779 5.8473)
(16.4502 12.09 5.96323)
(16.3157 4.3 6.32621)
(16.2984 4.3 6.37281)
(16.4932 15.8 5.8473)
(16.4502 15.8 5.96323)
(16.0979 5.1992 6.85996)
(16.1573 8.33895 6.71568)
(16.0809 4.3 6.90128)
(16.0619 4.3 6.94724)
(16.0979 15.8 6.85996)
(16.1573 15.8 6.71568)
(15.8258 4.3 7.46766)
(15.8053 4.3 7.51291)
(15.6544 8.98398 7.8162)
(15.7368 12.7084 7.65047)
(15.5508 4.3 8.02462)
(15.5287 4.3 8.06912)
(15.6544 15.8 7.8162)
(15.7368 15.8 7.65047)
(15.2562 4.3 8.57148)
(15.2325 4.3 8.61516)
(15.2358 15.8 8.60902)
(15.2461 15.8 8.59012)
(14.9424 4.3 9.10753)
(14.9171 4.3 9.15034)
(14.6746 6.72659 9.53045)
(14.6097 4.3 9.63211)
(14.7763 10.5306 9.37109)
(14.583 4.3 9.674)
(14.6746 15.8 9.53045)
(14.7763 15.8 9.37109)
(14.2587 4.3 10.1446)
(14.2305 4.3 10.1855)
(14.0976 11.3181 10.3643)
(14.1832 14.2052 10.2491)
(13.8896 4.3 10.6442)
(13.86 4.3 10.6841)
(14.0976 15.8 10.3643)
(14.1832 15.8 10.2491)
(13.5193 4.81999 11.1103)
(13.6066 7.63416 11.001)
(13.5031 4.3 11.1305)
(13.4721 4.3 11.1693)
(13.5193 15.8 11.1103)
(13.6066 15.8 11.001)
(13.0996 4.3 11.6027)
(13.0672 4.3 11.6404)
(12.6796 4.3 12.0603)
(12.9488 12.288 11.7686)
(12.8201 8.46906 11.9081)
(12.6458 4.3 12.0968)
(12.9488 15.8 11.7686)
(12.8201 15.8 11.9081)
(12.2435 4.3 12.5027)
(12.2086 4.3 12.538)
(12.1781 14.9588 12.5666)
(12.2009 15.589 12.5452)
(11.7921 4.3 12.9294)
(11.7559 4.3 12.9634)
(12.1781 15.8 12.5666)
(12.2009 15.8 12.5452)
(11.5393 10.0094 13.1529)
(11.4009 6.30893 13.274)
(11.3258 4.3 13.3397)
(11.2884 4.3 13.3724)
(11.5393 15.8 13.1529)
(11.4009 15.8 13.274)
(10.8452 4.3 13.7333)
(10.8067 4.3 13.7647)
(10.7284 13.8245 13.8239)
(10.6017 10.6275 13.9198)
(10.351 4.3 14.1095)
(10.3114 4.3 14.1395)
(10.7284 15.8 13.8239)
(10.6017 15.8 13.9198)
(9.94716 6.84426 14.3953)
(9.8437 4.3 14.468)
(9.84973 4.4482 14.4638)
(9.80304 4.3 14.4966)
(9.84973 15.8 14.4638)
(9.94716 15.8 14.3953)
(9.32402 4.3 14.8083)
(9.28237 4.3 14.8354)
(8.94939 7.9817 15.0356)
(9.11423 11.8522 14.9364)
(8.79259 4.3 15.1298)
(8.75 4.3 15.1554)
(9.11423 15.8 14.9364)
(8.94939 15.8 15.0356)
(8.25008 4.3 15.4324)
(8.20661 4.3 15.4564)
(8.11684 13.7736 15.5021)
(8.18149 15.2331 15.4692)
(7.69718 4.3 15.7154)
(7.65288 4.3 15.738)
(8.11684 15.8 15.5021)
(8.18149 15.8 15.4692)
(7.13457 4.3 15.9787)
(7.36687 9.4541 15.8708)
(7.20682 5.903 15.9452)
(7.0895 4.3 15.9997)
(7.20682 15.8 15.9452)
(7.36687 15.8 15.8708)
(6.56298 4.3 16.2219)
(6.5172 4.3 16.2412)
(6.40738 13.4353 16.283)
(6.24778 9.99871 16.3438)
(5.98312 4.3 16.4446)
(5.93668 4.3 16.4623)
(6.40738 15.8 16.283)
(6.24778 15.8 16.3438)
(5.47294 5.94145 16.6202)
(5.34868 4.3 16.6626)
(5.47294 15.8 16.6202)
(5.3855 15.8 16.65)
(4.80152 4.3 16.8276)
(4.75394 4.3 16.8419)
(4.54245 11.3992 16.8976)
(4.35589 7.5172 16.9467)
(4.20128 4.3 16.9874)
(4.15322 4.3 17)
(4.54245 15.8 16.8976)
(4.35589 15.8 16.9467)
(3.59573 4.3 17.1258)
(3.54726 4.3 17.1367)
(2.98566 4.3 17.2426)
(3.50191 14.8714 17.1453)
(3.39988 12.7821 17.1645)
(2.93683 4.3 17.2518)
(3.50191 15.8 17.1453)
(3.39988 15.8 17.1645)
(2.4312 5.50841 17.3287)
(2.59566 8.85597 17.3037)
(2.37183 4.3 17.3377)
(2.3227 4.3 17.3452)
(2.4312 15.8 17.3287)
(2.59566 15.8 17.3037)
(1.755 4.3 17.411)
(1.70564 4.3 17.4167)
(1.5687 13.0355 17.4276)
(1.38959 9.4199 17.442)
(1.13597 4.3 17.4623)
(1.08643 4.3 17.4662)
(1.5687 15.8 17.4276)
(1.38959 15.8 17.442)
(0.54427 4.87939 17.4903)
(0.465859 4.3 17.4938)
(0.486909 15.8 17.4929)
(0.54427 15.8 17.4903)
(-0.10561 4.3 17.4989)
(-0.155303 4.3 17.4993)
(-0.397458 10.9254 17.4929)
(-0.588878 7.07217 17.4878)
(-0.726592 4.3 17.4841)
(-0.776269 4.3 17.4828)
(-0.588878 15.8 17.4878)
(-0.397458 15.8 17.4929)
(-1.34666 4.3 17.4473)
(-1.39626 4.3 17.4442)
(-1.5877 11.9291 17.4255)
(-1.46038 14.5035 17.4379)
(-1.96503 4.3 17.3885)
(-2.01449 4.3 17.3837)
(-1.5877 15.8 17.4255)
(-1.46038 15.8 17.4379)
(-2.38863 8.20397 17.3336)
(-2.54042 5.12235 17.3132)
(-2.58092 4.3 17.3078)
(-2.63018 4.3 17.3012)
(-2.38863 15.8 17.3336)
(-2.54042 15.8 17.3132)
(-3.19356 4.3 17.2053)
(-3.24255 4.3 17.197)
(-3.80218 4.3 17.0811)
(-3.39702 12.6259 17.165)
(-3.57939 8.87826 17.1272)
(-3.85084 4.3 17.0711)
(-3.39702 15.8 17.165)
(-3.57939 15.8 17.1272)
(-4.40601 4.3 16.9354)
(-4.45428 4.3 16.9236)
(-4.45089 15.8 16.9245)
(-4.44016 15.8 16.9271)
(-5.00428 4.3 16.7684)
(-5.05211 4.3 16.7549)
(-5.48545 6.6417 16.6158)
(-5.30623 10.4294 16.6733)
(-5.59625 4.3 16.5802)
(-5.64357 4.3 16.565)
(-5.48545 15.8 16.6158)
(-5.30623 15.8 16.6733)
(-6.18117 4.3 16.3712)
(-6.22792 4.3 16.3543)
(-6.30493 14.1301 16.3234)
(-6.44131 11.1733 16.2687)
(-6.7583 4.3 16.1415)
(-6.80442 4.3 16.123)
(-6.30493 15.8 16.3234)
(-6.44131 15.8 16.2687)
(-7.18225 7.48412 15.9555)
(-7.3067 4.74501 15.9004)
(-7.32692 4.3 15.8914)
(-7.37235 4.3 15.8713)
(-7.3067 15.8 15.9004)
(-7.18225 15.8 15.9555)
(-7.8863 4.3 15.6214)
(-7.93099 4.3 15.5997)
(-8.08892 12.2019 15.5158)
(-8.25712 8.36978 15.4265)
(-8.43575 4.3 15.3317)
(-8.47964 4.3 15.3084)
(-8.08892 15.8 15.5158)
(-8.25712 15.8 15.4265)
(-8.97457 4.3 15.0226)
(-9.0176 4.3 14.9978)
(-9.06382 14.7028 14.9688)
(-9.02948 15.5182 14.9903)
(-9.50208 4.3 14.6946)
(-9.5442 4.3 14.6683)
(-9.06382 15.8 14.9688)
(-9.02948 15.8 14.9903)
(-10.0176 4.3 14.3481)
(-9.78704 9.90101 14.5041)
(-9.93829 6.22688 14.4018)
(-10.0588 4.3 14.3203)
(-9.93829 15.8 14.4018)
(-9.78704 15.8 14.5041)
(-10.5205 4.3 13.9836)
(-10.5607 4.3 13.9543)
(-11.0102 4.3 13.6014)
(-10.6409 13.7473 13.8913)
(-10.7679 10.4974 13.7916)
(-11.0493 4.3 13.5707)
(-10.6409 15.8 13.8913)
(-10.7679 15.8 13.7916)
(-11.4831 4.37463 13.2044)
(-11.3958 6.67376 13.2781)
(-11.486 4.3 13.202)
(-11.5239 4.3 13.17)
(-11.4831 15.8 13.2044)
(-11.3958 15.8 13.2781)
(-11.9473 4.3 12.7861)
(-11.9841 4.3 12.7527)
(-12.3936 4.3 12.354)
(-12.2658 7.88739 12.4784)
(-12.1278 11.763 12.6127)
(-12.4292 4.3 12.3193)
(-12.2658 15.8 12.4784)
(-12.1278 15.8 12.6127)
(-12.8242 4.3 11.9064)
(-12.8585 4.3 11.8705)
(-13.2387 4.3 11.4437)
(-12.8796 15.1616 11.8468)
(-12.9326 13.5608 11.7874)
(-13.2717 4.3 11.4066)
(-12.8796 15.8 11.8468)
(-12.9326 15.8 11.7874)
(-13.6365 4.3 10.9667)
(-13.5882 5.82349 11.0249)
(-13.4767 9.33809 11.1594)
(-13.6682 4.3 10.9284)
(-13.4767 15.8 11.1594)
(-13.5882 15.8 11.0249)
(-14.0171 4.3 10.4758)
(-14.0475 4.3 10.4364)
(-14.2187 9.87934 10.1972)
(-14.1181 13.356 10.3377)
(-14.3801 4.3 9.97171)
(-14.409 4.3 9.9313)
(-14.2187 15.8 10.1972)
(-14.1181 15.8 10.3377)
(-14.6853 5.74208 9.51479)
(-14.7524 4.3 9.41366)
(-14.7329 15.8 9.4431)
(-14.6853 15.8 9.51479)
(-15.0512 4.3 8.92651)
(-15.0772 4.3 8.88415)
(-15.2821 7.42647 8.52195)
(-15.1871 11.3068 8.68979)
(-15.3585 4.3 8.38671)
(-15.383 4.3 8.34345)
(-15.2821 15.8 8.52195)
(-15.1871 15.8 8.68979)
(-15.6465 4.3 7.83634)
(-15.6694 4.3 7.79224)
(-15.6908 14.7984 7.74729)
(-15.7377 12.6021 7.64871)
(-15.9148 4.3 7.2761)
(-15.9361 4.3 7.23121)
(-15.6908 15.8 7.74729)
(-15.7377 15.8 7.64871)
(-16.163 4.3 6.70668)
(-16.0756 8.72974 6.90873)
(-16.1407 5.43071 6.75826)
(-16.1827 4.3 6.66107)
(-16.1407 15.8 6.75826)
(-16.0756 15.8 6.90873)
(-16.3908 4.3 6.12882)
(-16.4089 4.3 6.08254)
(-16.598 4.3 5.54324)
(-16.4557 12.9549 5.94912)
(-16.5157 9.30796 5.77809)
(-16.6145 4.3 5.49634)
(-16.4557 15.8 5.94912)
(-16.5157 15.8 5.77809)
(-16.7792 4.64146 4.96687)
(-16.7991 4.3 4.90322)
(-16.7792 15.8 4.96687)
(-16.7938 15.8 4.91999)
(-16.9494 4.3 4.35186)
(-16.9625 4.3 4.30392)
(-17.0932 4.3 3.74757)
(-17.019 10.8287 4.06342)
(-17.0627 6.9845 3.87744)
(-17.1046 4.3 3.6992)
(-17.019 15.8 4.06342)
(-17.0627 15.8 3.87744)
(-17.2154 4.3 3.13856)
(-17.2251 4.3 3.08981)
(-17.2359 14.4297 3.02258)
(-17.2569 11.7699 2.89208)
(-17.316 4.3 2.5256)
(-17.3239 4.3 2.47653)
(-17.2359 15.8 3.02258)
(-17.2569 15.8 2.89208)
(-17.3947 4.3 1.90945)
(-17.3715 8.06643 2.09518)
(-17.3901 5.04635 1.94625)
(-17.4009 4.3 1.86014)
(-17.3715 15.8 2.09518)
(-17.3901 15.8 1.94625)
(-17.4515 4.3 1.29089)
(-17.4559 4.3 1.24139)
(-17.4745 8.77492 0.892779)
(-17.4863 4.3 0.670713)
(-17.4645 12.5417 1.0797)
(-17.4745 15.8 0.892779)
(-17.4645 15.8 1.0797)
(-17.5 28.3 -3.84085e-09)
(-17.5 28.3 -3.84085e-09)
(-17.5 28.3 -3.84085e-09)
(-17.5 28.3 -3.84085e-09)
(-17.5 16.3 -3.84085e-09)
(-17.5 16.3 -3.84085e-09)
(-17.5 15.8 -3.84085e-09)
(-17.5 15.8 -3.84085e-09)
(-17.4745 21.2749 0.892779)
(-17.4645 25.0417 1.0797)
(-17.4745 28.3 0.892779)
(-17.4645 28.3 1.0797)
(-17.3715 20.5664 2.09518)
(-17.3901 17.5464 1.94625)
(-17.3901 28.3 1.94625)
(-17.3715 28.3 2.09518)
(-17.2359 26.9297 3.02258)
(-17.2569 24.2699 2.89208)
(-17.2359 28.3 3.02258)
(-17.2569 28.3 2.89208)
(-17.019 23.3287 4.06342)
(-17.0627 19.4845 3.87744)
(-17.019 28.3 4.06342)
(-17.0627 28.3 3.87744)
(-16.7938 16.1533 4.91999)
(-16.7792 17.1415 4.96687)
(-16.7792 28.3 4.96687)
(-16.7938 28.3 4.91999)
(-16.4557 25.4549 5.94912)
(-16.5157 21.808 5.77809)
(-16.4557 28.3 5.94912)
(-16.5157 28.3 5.77809)
(-16.1407 17.9307 6.75826)
(-16.0756 21.2297 6.90873)
(-16.1407 28.3 6.75826)
(-16.0756 28.3 6.90873)
(-15.6908 27.2984 7.74729)
(-15.7377 25.1021 7.64871)
(-15.6908 28.3 7.74729)
(-15.7377 28.3 7.64871)
(-15.1871 23.8068 8.68979)
(-15.2821 19.9265 8.52195)
(-15.2821 28.3 8.52195)
(-15.1871 28.3 8.68979)
(-14.7329 16.511 9.4431)
(-14.6853 18.2421 9.51479)
(-14.6853 28.3 9.51479)
(-14.7329 28.3 9.4431)
(-14.1181 25.856 10.3377)
(-14.2187 22.3793 10.1972)
(-14.1181 28.3 10.3377)
(-14.2187 28.3 10.1972)
(-13.5882 18.3235 11.0249)
(-13.4767 21.8381 11.1594)
(-13.5882 28.3 11.0249)
(-13.4767 28.3 11.1594)
(-12.8796 27.6616 11.8468)
(-12.9326 26.0608 11.7874)
(-12.8796 28.3 11.8468)
(-12.9326 28.3 11.7874)
(-12.1278 24.263 12.6127)
(-12.2658 20.3874 12.4784)
(-12.2658 28.3 12.4784)
(-12.1278 28.3 12.6127)
(-11.4831 16.8746 13.2044)
(-11.3958 19.1738 13.2781)
(-11.3958 28.3 13.2781)
(-11.4831 28.3 13.2044)
(-10.7679 22.9974 13.7916)
(-10.6409 26.2473 13.8913)
(-10.7679 28.3 13.7916)
(-10.6409 28.3 13.8913)
(-9.78704 22.401 14.5041)
(-9.93829 18.7269 14.4018)
(-9.78704 28.3 14.5041)
(-9.93829 28.3 14.4018)
(-9.02948 28.0182 14.9903)
(-9.06382 27.2028 14.9688)
(-9.02948 28.3 14.9903)
(-9.06382 28.3 14.9688)
(-8.08892 24.7019 15.5158)
(-8.25712 20.8698 15.4265)
(-8.08892 28.3 15.5158)
(-8.25712 28.3 15.4265)
(-7.3067 17.245 15.9004)
(-7.18225 19.9841 15.9555)
(-7.3067 28.3 15.9004)
(-7.18225 28.3 15.9555)
(-6.44131 23.6733 16.2687)
(-6.30493 26.6301 16.3234)
(-6.44131 28.3 16.2687)
(-6.30493 28.3 16.3234)
(-5.48545 19.1417 16.6158)
(-5.30623 22.9294 16.6733)
(-5.48545 28.3 16.6158)
(-5.30623 28.3 16.6733)
(-4.45089 15.8703 16.9245)
(-4.44016 16.0925 16.9271)
(-4.45089 28.3 16.9245)
(-4.44016 28.3 16.9271)
(-3.39702 25.1259 17.165)
(-3.57939 21.3783 17.1272)
(-3.39702 28.3 17.165)
(-3.57939 28.3 17.1272)
(-2.38863 20.704 17.3336)
(-2.54042 17.6224 17.3132)
(-2.54042 28.3 17.3132)
(-2.38863 28.3 17.3336)
(-1.46038 27.0035 17.4379)
(-1.5877 24.4291 17.4255)
(-1.46038 28.3 17.4379)
(-1.5877 28.3 17.4255)
(-0.588878 19.5722 17.4878)
(-0.397458 23.4254 17.4929)
(-0.588878 28.3 17.4878)
(-0.397458 28.3 17.4929)
(0.486909 16.224 17.4929)
(0.54427 17.3794 17.4903)
(0.486909 28.3 17.4929)
(0.54427 28.3 17.4903)
(1.38959 21.9199 17.442)
(1.5687 25.5355 17.4276)
(1.38959 28.3 17.442)
(1.5687 28.3 17.4276)
(2.4312 18.0084 17.3287)
(2.59566 21.356 17.3037)
(2.4312 28.3 17.3287)
(2.59566 28.3 17.3037)
(3.39988 25.2821 17.1645)
(3.50191 27.3714 17.1453)
(3.39988 28.3 17.1645)
(3.50191 28.3 17.1453)
(4.35589 20.0172 16.9467)
(4.54245 23.8992 16.8976)
(4.54245 28.3 16.8976)
(4.35589 28.3 16.9467)
(5.3855 16.5827 16.65)
(5.47294 18.4414 16.6202)
(5.47294 28.3 16.6202)
(5.3855 28.3 16.65)
(6.24778 22.4987 16.3438)
(6.40738 25.9353 16.283)
(6.24778 28.3 16.3438)
(6.40738 28.3 16.283)
(7.20682 18.403 15.9452)
(7.36687 21.9541 15.8708)
(7.36687 28.3 15.8708)
(7.20682 28.3 15.9452)
(8.11684 26.2736 15.5021)
(8.18149 27.7331 15.4692)
(8.11684 28.3 15.5021)
(8.18149 28.3 15.4692)
(9.11423 24.3522 14.9364)
(8.94939 20.4817 15.0356)
(9.11423 28.3 14.9364)
(8.94939 28.3 15.0356)
(9.84973 16.9482 14.4638)
(9.94716 19.3443 14.3953)
(9.94716 28.3 14.3953)
(9.84973 28.3 14.4638)
(10.6017 23.1275 13.9198)
(10.7284 26.3245 13.8239)
(10.6017 28.3 13.9198)
(10.7284 28.3 13.8239)
(11.5393 22.5094 13.1529)
(11.4009 18.8089 13.274)
(11.5393 28.3 13.1529)
(11.4009 28.3 13.274)
(12.2009 28.089 12.5452)
(12.1781 27.4588 12.5666)
(12.2009 28.3 12.5452)
(12.1781 28.3 12.5666)
(12.8201 20.9691 11.9081)
(12.9488 24.788 11.7686)
(12.8201 28.3 11.9081)
(12.9488 28.3 11.7686)
(13.5193 17.32 11.1103)
(13.6066 20.1342 11.001)
(13.5193 28.3 11.1103)
(13.6066 28.3 11.001)
(14.0976 23.8181 10.3643)
(14.1832 26.7052 10.2491)
(14.0976 28.3 10.3643)
(14.1832 28.3 10.2491)
(14.6746 19.2266 9.53045)
(14.7763 23.0306 9.37109)
(14.6746 28.3 9.53045)
(14.7763 28.3 9.37109)
(15.2358 15.9405 8.60902)
(15.2461 16.3733 8.59012)
(15.2358 28.3 8.60902)
(15.2461 28.3 8.59012)
(15.6544 21.484 7.8162)
(15.7368 25.2084 7.65047)
(15.6544 28.3 7.8162)
(15.7368 28.3 7.65047)
(16.1573 20.839 6.71568)
(16.0979 17.6992 6.85996)
(16.1573 28.3 6.71568)
(16.0979 28.3 6.85996)
(16.4932 27.0779 5.8473)
(16.4502 24.59 5.96323)
(16.4932 28.3 5.8473)
(16.4502 28.3 5.96323)
(16.8169 23.5222 4.83222)
(16.7631 19.6594 5.01649)
(16.8169 28.3 4.83222)
(16.7631 28.3 5.01649)
(17.0414 16.2957 3.97811)
(17.0552 17.6063 3.91445)
(17.0552 28.3 3.91445)
(17.0414 28.3 3.97811)
(17.2537 25.6166 2.91487)
(17.2222 22.0315 3.09023)
(17.2537 28.3 2.91487)
(17.2222 28.3 3.09023)
(17.3772 18.0861 2.05571)
(17.3951 21.4802 1.888)
(17.3772 28.3 2.05571)
(17.3951 28.3 1.888)
(17.4652 25.4685 1.07175)
(17.4722 27.4441 0.973817)
(17.4652 28.3 1.07175)
(17.4722 28.3 0.973817)
(17.4972 23.9913 -0.0964738)
(17.4972 20.1087 0.0964738)
(17.4972 28.3 -0.0964738)
(17.4972 28.3 0.0964738)
(17.4722 16.6559 -0.973817)
(17.4652 18.6315 -1.07175)
(17.4722 28.3 -0.973817)
(17.4652 28.3 -1.07175)
(17.3951 22.6198 -1.888)
(17.3772 26.0139 -2.05571)
(17.3951 28.3 -1.888)
(17.3772 28.3 -2.05571)
(17.2222 22.0685 -3.09023)
(17.2537 18.4834 -2.91487)
(17.2537 28.3 -2.91487)
(17.2222 28.3 -3.09023)
(17.0414 27.8043 -3.97811)
(17.0552 26.4937 -3.91445)
(17.0414 28.3 -3.97811)
(17.0552 28.3 -3.91445)
(16.7631 24.4406 -5.01649)
(16.8169 20.5778 -4.83222)
(16.7631 28.3 -5.01649)
(16.8169 28.3 -4.83222)
(16.4502 19.5102 -5.96324)
(16.4932 17.022 -5.8473)
(16.4502 28.3 -5.96324)
(16.4932 28.3 -5.8473)
(16.1573 23.261 -6.71568)
(16.0979 26.4008 -6.85996)
(16.1573 28.3 -6.71568)
(16.0979 28.3 -6.85996)
(15.7368 18.8916 -7.65047)
(15.6544 22.616 -7.8162)
(15.7368 28.3 -7.65047)
(15.6544 28.3 -7.8162)
(15.2461 27.7267 -8.59012)
(15.2358 28.1595 -8.60902)
(15.2461 28.3 -8.59012)
(15.2358 28.3 -8.60902)
(14.7763 21.0694 -9.37109)
(14.6746 24.8734 -9.53045)
(14.7763 28.3 -9.37109)
(14.6746 28.3 -9.53045)
(14.1832 17.3951 -10.2491)
(14.0977 20.2815 -10.3642)
(14.1832 28.3 -10.2491)
(14.0977 28.3 -10.3642)
(13.6066 23.9658 -11.001)
(13.5193 26.78 -11.1103)
(13.6066 28.3 -11.001)
(13.5193 28.3 -11.1103)
(12.9488 19.312 -11.7686)
(12.8201 23.1309 -11.9081)
(12.9488 28.3 -11.7686)
(12.8201 28.3 -11.9081)
(12.1781 16.6401 -12.5666)
(12.2009 16.0113 -12.5452)
(12.1781 28.3 -12.5666)
(12.2009 28.3 -12.5452)
(11.4009 25.2911 -13.274)
(11.5393 21.5906 -13.1529)
(11.4009 28.3 -13.274)
(11.5393 28.3 -13.1529)
(10.7284 17.7755 -13.8239)
(10.6017 20.9725 -13.9198)
(10.6017 28.3 -13.9198)
(10.7284 28.3 -13.8239)
(9.84973 27.1518 -14.4638)
(9.94716 24.7557 -14.3953)
(9.84973 28.3 -14.4638)
(9.94716 28.3 -14.3953)
(9.11423 19.7478 -14.9364)
(8.94939 23.6183 -15.0356)
(8.94939 28.3 -15.0356)
(9.11423 28.3 -14.9364)
(8.18149 16.3669 -15.4692)
(8.11684 17.8264 -15.5021)
(8.11684 28.3 -15.5021)
(8.18149 28.3 -15.4692)
(7.20682 25.697 -15.9452)
(7.36687 22.1459 -15.8708)
(7.20682 28.3 -15.9452)
(7.36687 28.3 -15.8708)
(6.40738 18.1647 -16.283)
(6.24778 21.6013 -16.3438)
(6.40738 28.3 -16.283)
(6.24778 28.3 -16.3438)
(5.47294 25.6586 -16.6202)
(5.3855 27.5173 -16.65)
(5.47294 28.3 -16.6202)
(5.3855 28.3 -16.65)
(4.54245 20.2008 -16.8976)
(4.35589 24.0828 -16.9467)
(4.35589 28.3 -16.9467)
(4.54245 28.3 -16.8976)
(3.50191 16.7286 -17.1453)
(3.39988 18.8179 -17.1645)
(3.39988 28.3 -17.1645)
(3.50191 28.3 -17.1453)
(2.59566 22.744 -17.3037)
(2.4312 26.0916 -17.3287)
(2.59566 28.3 -17.3037)
(2.4312 28.3 -17.3287)
(1.5687 18.5645 -17.4276)
(1.38959 22.1801 -17.442)
(1.5687 28.3 -17.4276)
(1.38959 28.3 -17.442)
(0.54427 26.7206 -17.4903)
(0.486909 27.876 -17.4929)
(0.54427 28.3 -17.4903)
(0.486909 28.3 -17.4929)
(-0.397458 20.6746 -17.4929)
(-0.588878 24.5278 -17.4878)
(-0.397458 28.3 -17.4929)
(-0.588878 28.3 -17.4878)
(-1.46038 17.0965 -17.4379)
(-1.5877 19.6709 -17.4255)
(-1.46038 28.3 -17.4379)
(-1.5877 28.3 -17.4255)
(-2.54042 26.4776 -17.3132)
(-2.38863 23.396 -17.3336)
(-2.54042 28.3 -17.3132)
(-2.38863 28.3 -17.3336)
(-3.39702 18.9741 -17.165)
(-3.57939 22.7217 -17.1272)
(-3.39702 28.3 -17.165)
(-3.57939 28.3 -17.1272)
(-4.44016 28.0075 -16.9271)
(-4.45089 28.2297 -16.9245)
(-4.44016 28.3 -16.9271)
(-4.45089 28.3 -16.9245)
(-5.48544 24.958 -16.6158)
(-5.30627 21.1714 -16.6733)
(-5.30627 28.3 -16.6733)
(-5.48544 28.3 -16.6158)
(-6.30493 17.4699 -16.3234)
(-6.44131 20.4267 -16.2687)
(-6.44131 28.3 -16.2687)
(-6.30493 28.3 -16.3234)
(-7.3067 26.855 -15.9004)
(-7.18225 24.1159 -15.9555)
(-7.3067 28.3 -15.9004)
(-7.18225 28.3 -15.9555)
(-8.08892 19.3981 -15.5158)
(-8.25712 23.2302 -15.4265)
(-8.08892 28.3 -15.5158)
(-8.25712 28.3 -15.4265)
(-9.02948 16.0818 -14.9903)
(-9.06382 16.8972 -14.9688)
(-9.02948 28.3 -14.9903)
(-9.06382 28.3 -14.9688)
(-9.93829 25.3731 -14.4018)
(-9.78704 21.699 -14.5041)
(-9.93829 28.3 -14.4018)
(-9.78704 28.3 -14.5041)
(-10.6409 17.8527 -13.8913)
(-10.7679 21.1026 -13.7916)
(-10.6409 28.3 -13.8913)
(-10.7679 28.3 -13.7916)
(-11.4831 27.2254 -13.2044)
(-11.3958 24.9262 -13.2781)
(-11.4831 28.3 -13.2044)
(-11.3958 28.3 -13.2781)
(-12.1278 19.837 -12.6127)
(-12.2658 23.7126 -12.4784)
(-12.2658 28.3 -12.4784)
(-12.1278 28.3 -12.6127)
(-12.8796 16.4384 -11.8468)
(-12.9326 18.0392 -11.7874)
(-12.8796 28.3 -11.8468)
(-12.9326 28.3 -11.7874)
(-13.4767 22.2619 -11.1594)
(-13.5882 25.7765 -11.0249)
(-13.4767 28.3 -11.1594)
(-13.5882 28.3 -11.0249)
(-14.1181 18.244 -10.3377)
(-14.2187 21.7207 -10.1972)
(-14.1181 28.3 -10.3377)
(-14.2187 28.3 -10.1972)
(-14.7329 27.589 -9.4431)
(-14.6853 25.8579 -9.51479)
(-14.7329 28.3 -9.4431)
(-14.6853 28.3 -9.51479)
(-15.2821 24.1735 -8.52195)
(-15.1871 20.2932 -8.68979)
(-15.2821 28.3 -8.52195)
(-15.1871 28.3 -8.68979)
(-15.6908 16.8016 -7.74729)
(-15.7377 18.9979 -7.64871)
(-15.6908 28.3 -7.74729)
(-15.7377 28.3 -7.64871)
(-16.0756 22.8703 -6.90873)
(-16.1407 26.1693 -6.75826)
(-16.0756 28.3 -6.90873)