/*--------------------------------*- C++ -*----------------------------------*\
| =========                 |                                                 |
| \\      /  F ield         | OpenFOAM: The Open Source CFD Toolbox           |
|  \\    /   O peration     | Version:  2512                                  |
|   \\  /    A nd           | Website:  www.openfoam.com                      |
|    \\/     M anipulation  |                                                 |
\*---------------------------------------------------------------------------*/
FoamFile
{
    version     2.0;
    format      ascii;
    arch        "LSB;label=32;scalar=64";
    class       extendedFeatureEdgeMesh;
    location    "constant/extendedFeatureEdgeMesh";
    object      Radial_Fins.extendedFeatureEdgeMesh;
}
// * * * * * * * * * * * * * * * * * * * * * * * * * * * * * * * * * * * * * //

// points

4988
(
(0.04699862 0.0043 -0.01706254)
(0.04699862 0.0293 -0.01706254)
(0.04716687 0.0293 -0.01659175)
(0.04716687 0.0043 -0.01659175)
(0.04782718 0.0043 -0.01457946)
(0.04782718 0.0293 -0.01457946)
(0.04797072 0.0293 -0.01410002)
(0.04797072 0.0043 -0.01410002)
(0.04308497 0.0043 -0.01073372)
(0.04308497 0.0293 -0.01073372)
(0.04320311 0.0293 -0.01024787)
(0.04320311 0.0043 -0.01024787)
(0.04633772 0.0043 -0.008982929)
(0.04633772 0.0293 -0.008982929)
(0.04643006 0.0293 -0.008492715)
(0.04643006 0.0043 -0.008492715)
(0.04674444 0.0043 -0.006541976)
(0.04674444 0.0293 -0.006541976)
(0.04681078 0.0293 -0.006048995)
(0.04681078 0.0043 -0.006048995)
(0.04423177 0.0043 -0.00386144)
(0.04423177 0.0293 -0.00386144)
(0.04427245 0.0293 -0.003363097)
(0.04427245 0.0043 -0.003363097)
(0.0499757 0.0043 -0.0015587)
(0.0499757 0.0293 -0.0015587)
(0.04998878 0.0293 -0.001058917)
(0.04998878 0.0043 -0.001058917)
(0.04998878 0.0043 0.001058943)
(0.04998878 0.0293 0.001058943)
(0.04997568 0.0293 0.001559229)
(0.04997568 0.0043 0.001559229)
(0.04428392 0.0043 0.003234448)
(0.04428392 0.0293 0.003234448)
(0.04424469 0.0293 0.003732907)
(0.04424469 0.0043 0.003732907)
(0.04682866 0.0043 0.005912112)
(0.04682866 0.0293 0.005912112)
(0.04676357 0.0293 0.006406683)
(0.04676357 0.0043 0.006406683)
(0.04645406 0.0043 0.008358201)
(0.04645406 0.0293 0.008358201)
(0.0463634 0.0293 0.008847294)
(0.0463634 0.0043 0.008847294)
(0.0432309 0.0043 0.01012172)
(0.0432309 0.0293 0.01012172)
(0.04311418 0.0293 0.0106079)
(0.04311418 0.0043 0.0106079)
(0.04801139 0.0043 0.01396088)
(0.04801139 0.0293 0.01396088)
(0.04786938 0.0293 0.01444029)
(0.04786938 0.0043 0.01444029)
(0.04721494 0.0043 0.01645447)
(0.04721494 0.0293 0.01645447)
(0.04704803 0.0293 0.0169258)
(0.04704803 0.0043 0.0169258)
(0.04277803 0.0043 0.01994694)
(0.04277803 0.0293 0.01994694)
(0.03887891 0.0043 0.01901161)
(0.03887891 0.0293 0.01901161)
(0.03837327 0.0043 0.02001061)
(0.03837327 0.0293 0.02001061)
(0.0414408 0.0043 0.02259425)
(0.0414408 0.0293 0.02259425)
(0.04159113 0.0043 0.02775207)
(0.04159113 0.0293 0.02775207)
(0.04131156 0.0293 0.02816655)
(0.04131156 0.0043 0.02816655)
(0.04008171 0.0043 0.02989074)
(0.04008171 0.0293 0.02989074)
(0.03978053 0.0293 0.03029042)
(0.03978053 0.0043 0.03029042)
(0.03417397 0.0043 0.02834902)
(0.03417397 0.0293 0.02834902)
(0.03385258 0.0293 0.02873204)
(0.03385258 0.0043 0.02873204)
(0.03469076 0.0043 0.03200668)
(0.03469076 0.0293 0.03200668)
(0.03435057 0.0293 0.03237152)
(0.03435057 0.0043 0.03237152)
(0.03296534 0.0043 0.03378056)
(0.03296534 0.0293 0.03378056)
(0.03260751 0.0293 0.03412608)
(0.03260751 0.0043 0.03412608)
(0.02931724 0.0043 0.03334456)
(0.02931724 0.0293 0.03334456)
(0.02893988 0.0293 0.03367259)
(0.02893988 0.0043 0.03367259)
(0.03086536 0.0043 0.03933611)
(0.03086536 0.0293 0.03933611)
(0.0304705 0.0293 0.03964276)
(0.0304705 0.0043 0.03964276)
(0.02876439 0.0043 0.04089756)
(0.02876439 0.0293 0.04089756)
(0.0283536 0.0293 0.04118341)
(0.0283536 0.0043 0.04118341)
(0.02363181 0.0043 0.03759076)
(0.02363181 0.0293 0.03759076)
(0.02320701 0.0293 0.03785448)
(0.02320701 0.0043 0.03785448)
(0.02298244 0.0043 0.04122723)
(0.02298244 0.0293 0.04122723)
(0.02254545 0.0293 0.04146781)
(0.02254545 0.0043 0.04146781)
(0.02078996 0.0043 0.04237472)
(0.02078996 0.0293 0.04237472)
(0.02034224 0.0293 0.04259146)
(0.02034224 0.0043 0.04259146)
(0.01745964 0.0043 0.04082305)
(0.01745964 0.0293 0.04082305)
(0.01699882 0.0293 0.04101707)
(0.01699882 0.0043 0.04101707)
(0.01706254 0.0043 0.04699862)
(0.01706254 0.0293 0.04699862)
(0.01659175 0.0293 0.04716687)
(0.01659175 0.0043 0.04716687)
(0.01457946 0.0043 0.04782718)
(0.01457946 0.0293 0.04782718)
(0.01410002 0.0293 0.04797072)
(0.01410002 0.0043 0.04797072)
(0.01073372 0.0043 0.04308497)
(0.01073372 0.0293 0.04308497)
(0.01024787 0.0293 0.04320311)
(0.01024787 0.0043 0.04320311)
(0.008982929 0.0043 0.04633772)
(0.008982929 0.0293 0.04633772)
(0.008492715 0.0293 0.04643006)
(0.008492715 0.0043 0.04643006)
(0.006541976 0.0043 0.04674444)
(0.006541976 0.0293 0.04674444)
(0.006048995 0.0293 0.04681078)
(0.006048995 0.0043 0.04681078)
(0.00386144 0.0043 0.04423177)
(0.00386144 0.0293 0.04423177)
(0.003363097 0.0293 0.04427245)
(0.003363097 0.0043 0.04427245)
(0.0015587 0.0043 0.0499757)
(0.0015587 0.0293 0.0499757)
(0.001058917 0.0293 0.04998878)
(0.001058917 0.0043 0.04998878)
(-0.001058943 0.0043 0.04998878)
(-0.001058943 0.0293 0.04998878)
(-0.001559229 0.0293 0.04997568)
(-0.001559229 0.0043 0.04997568)
(-0.003234448 0.0043 0.04428392)
(-0.003234448 0.0293 0.04428392)
(-0.003732907 0.0293 0.04424469)
(-0.003732907 0.0043 0.04424469)
(-0.005912113 0.0043 0.04682866)
(-0.005912113 0.0293 0.04682866)
(-0.006406683 0.0293 0.04676357)
(-0.006406683 0.0043 0.04676357)
(-0.008358201 0.0043 0.04645406)
(-0.008358201 0.0293 0.04645406)
(-0.008847294 0.0293 0.0463634)
(-0.008847294 0.0043 0.0463634)
(-0.01012172 0.0043 0.0432309)
(-0.01012172 0.0293 0.0432309)
(-0.0106079 0.0293 0.04311418)
(-0.0106079 0.0043 0.04311418)
(-0.01396088 0.0043 0.04801139)
(-0.01396088 0.0293 0.04801139)
(-0.01444029 0.0293 0.04786938)
(-0.01444029 0.0043 0.04786938)
(-0.01645447 0.0043 0.04721494)
(-0.01645447 0.0293 0.04721494)
(-0.0169258 0.0293 0.04704803)
(-0.0169258 0.0043 0.04704803)
(-0.01994694 0.0043 0.04277803)
(-0.01994694 0.0293 0.04277803)
(-0.01901161 0.0043 0.03887891)
(-0.01901161 0.0293 0.03887891)
(-0.02001061 0.0043 0.03837327)
(-0.02001061 0.0293 0.03837327)
(-0.02259425 0.0043 0.0414408)
(-0.02259425 0.0293 0.0414408)
(-0.02775207 0.0043 0.04159113)
(-0.02775207 0.0293 0.04159113)
(-0.02816655 0.0293 0.04131156)
(-0.02816655 0.0043 0.04131156)
(-0.02989074 0.0043 0.04008171)
(-0.02989074 0.0293 0.04008171)
(-0.03029042 0.0293 0.03978053)
(-0.03029042 0.0043 0.03978053)
(-0.02834902 0.0043 0.03417397)
(-0.02834902 0.0293 0.03417397)
(-0.02873204 0.0293 0.03385258)
(-0.02873204 0.0043 0.03385258)
(-0.03200668 0.0043 0.03469076)
(-0.03200668 0.0293 0.03469076)
(-0.03237152 0.0293 0.03435057)
(-0.03237152 0.0043 0.03435057)
(-0.03378056 0.0043 0.03296534)
(-0.03378056 0.0293 0.03296534)
(-0.03412608 0.0293 0.03260751)
(-0.03412608 0.0043 0.03260751)
(-0.03334456 0.0043 0.02931724)
(-0.03334456 0.0293 0.02931724)
(-0.03367259 0.0293 0.02893988)
(-0.03367259 0.0043 0.02893988)
(-0.03933611 0.0043 0.03086536)
(-0.03933611 0.0293 0.03086536)
(-0.03964276 0.0293 0.0304705)
(-0.03964276 0.0043 0.0304705)
(-0.04089756 0.0043 0.02876439)
(-0.04089756 0.0293 0.02876439)
(-0.04118341 0.0293 0.0283536)
(-0.04118341 0.0043 0.0283536)
(-0.03759076 0.0043 0.02363181)
(-0.03759076 0.0293 0.02363181)
(-0.03785448 0.0293 0.02320701)
(-0.03785448 0.0043 0.02320701)
(-0.04122723 0.0043 0.02298244)
(-0.04122723 0.0293 0.02298244)
(-0.04146781 0.0293 0.02254545)
(-0.04146781 0.0043 0.02254545)
(-0.04237472 0.0043 0.02078996)
(-0.04237472 0.0293 0.02078996)
(-0.04259146 0.0293 0.02034224)
(-0.04259146 0.0043 0.02034224)
(-0.04082305 0.0043 0.01745964)
(-0.04082305 0.0293 0.01745964)
(-0.04101707 0.0293 0.01699882)
(-0.04101707 0.0043 0.01699882)
(-0.04699862 0.0043 0.01706254)
(-0.04699862 0.0293 0.01706254)
(-0.04716687 0.0293 0.01659175)
(-0.04716687 0.0043 0.01659175)
(-0.04782718 0.0043 0.01457946)
(-0.04782718 0.0293 0.01457946)
(-0.04797072 0.0293 0.01410002)
(-0.04797072 0.0043 0.01410002)
(-0.04308497 0.0043 0.01073372)
(-0.04308497 0.0293 0.01073372)
(-0.04320311 0.0293 0.01024787)
(-0.04320311 0.0043 0.01024787)
(-0.04633772 0.0043 0.008982929)
(-0.04633772 0.0293 0.008982929)
(-0.04643006 0.0293 0.008492715)
(-0.04643006 0.0043 0.008492715)
(-0.04674444 0.0043 0.006541976)
(-0.04674444 0.0293 0.006541976)
(-0.04681078 0.0293 0.006048995)
(-0.04681078 0.0043 0.006048995)
(-0.04423177 0.0043 0.00386144)
(-0.04423177 0.0293 0.00386144)
(-0.04427245 0.0293 0.003363097)
(-0.04427245 0.0043 0.003363097)
(-0.0499757 0.0043 0.0015587)
(-0.0499757 0.0293 0.0015587)
(-0.04998878 0.0293 0.001058917)
(-0.04998878 0.0043 0.001058917)
(-0.04998878 0.0043 -0.001058943)
(-0.04998878 0.0293 -0.001058943)
(-0.04997568 0.0293 -0.001559229)
(-0.04997568 0.0043 -0.001559229)
(-0.04428392 0.0043 -0.003234448)
(-0.04428392 0.0293 -0.003234448)
(-0.04424469 0.0293 -0.003732907)
(-0.04424469 0.0043 -0.003732907)
(-0.04682866 0.0043 -0.005912113)
(-0.04682866 0.0293 -0.005912113)
(-0.04676357 0.0293 -0.006406683)
(-0.04676357 0.0043 -0.006406683)
(-0.04645406 0.0043 -0.008358201)
(-0.04645406 0.0293 -0.008358201)
(-0.0463634 0.0293 -0.008847294)
(-0.0463634 0.0043 -0.008847294)
(-0.0432309 0.0043 -0.01012172)
(-0.0432309 0.0293 -0.01012172)
(-0.04311418 0.0293 -0.0106079)
(-0.04311418 0.0043 -0.0106079)
(-0.04801139 0.0043 -0.01396088)
(-0.04801139 0.0293 -0.01396088)
(-0.04786938 0.0293 -0.01444029)
(-0.04786938 0.0043 -0.01444029)
(-0.04721494 0.0043 -0.01645447)
(-0.04721494 0.0293 -0.01645447)
(-0.04704803 0.0293 -0.0169258)
(-0.04704803 0.0043 -0.0169258)
(-0.04277803 0.0043 -0.01994694)
(-0.04277803 0.0293 -0.01994694)
(-0.03887891 0.0043 -0.01901161)
(-0.03887891 0.0293 -0.01901161)
(-0.03837327 0.0043 -0.02001061)
(-0.03837327 0.0293 -0.02001061)
(-0.0414408 0.0043 -0.02259425)
(-0.0414408 0.0293 -0.02259425)
(-0.04159113 0.0043 -0.02775207)
(-0.04159113 0.0293 -0.02775207)
(-0.04131156 0.0293 -0.02816655)
(-0.04131156 0.0043 -0.02816655)
(-0.04008171 0.0043 -0.02989074)
(-0.04008171 0.0293 -0.02989074)
(-0.03978053 0.0293 -0.03029042)
(-0.03978053 0.0043 -0.03029042)
(-0.03417397 0.0043 -0.02834902)
(-0.03417397 0.0293 -0.02834902)
(-0.03385258 0.0293 -0.02873204)
(-0.03385258 0.0043 -0.02873204)
(-0.03469076 0.0043 -0.03200668)
(-0.03469076 0.0293 -0.03200668)
(-0.03435057 0.0293 -0.03237152)
(-0.03435057 0.0043 -0.03237152)
(-0.03296534 0.0043 -0.03378056)
(-0.03296534 0.0293 -0.03378056)
(-0.03260751 0.0293 -0.03412608)
(-0.03260751 0.0043 -0.03412608)
(-0.02931724 0.0043 -0.03334456)
(-0.02931724 0.0293 -0.03334456)
(-0.02893988 0.0293 -0.03367259)
(-0.02893988 0.0043 -0.03367259)
(-0.03086536 0.0043 -0.03933611)
(-0.03086536 0.0293 -0.03933611)
(-0.0304705 0.0293 -0.03964276)
(-0.0304705 0.0043 -0.03964276)
(-0.02876439 0.0043 -0.04089756)
(-0.02876439 0.0293 -0.04089756)
(-0.0283536 0.0293 -0.04118341)
(-0.0283536 0.0043 -0.04118341)
(-0.02363181 0.0043 -0.03759076)
(-0.02363181 0.0293 -0.03759076)
(-0.02320701 0.0293 -0.03785448)
(-0.02320701 0.0043 -0.03785448)
(-0.02298244 0.0043 -0.04122723)
(-0.02298244 0.0293 -0.04122723)
(-0.02254545 0.0293 -0.04146781)
(-0.02254545 0.0043 -0.04146781)
(-0.02078996 0.0043 -0.04237472)
(-0.02078996 0.0293 -0.04237472)
(-0.02034224 0.0293 -0.04259146)
(-0.02034224 0.0043 -0.04259146)
(-0.01745964 0.0043 -0.04082305)
(-0.01745964 0.0293 -0.04082305)
(-0.01699882 0.0293 -0.04101707)
(-0.01699882 0.0043 -0.04101707)
(-0.01706254 0.0043 -0.04699862)
(-0.01706254 0.0293 -0.04699862)
(-0.01659175 0.0293 -0.04716687)
(-0.01659175 0.0043 -0.04716687)
(-0.01457946 0.0043 -0.04782718)
(-0.01457946 0.0293 -0.04782718)
(-0.01410002 0.0293 -0.04797072)
(-0.01410002 0.0043 -0.04797072)
(-0.01073372 0.0043 -0.04308497)
(-0.01073372 0.0293 -0.04308497)
(-0.01024787 0.0293 -0.04320311)
(-0.01024787 0.0043 -0.04320311)
(-0.008982929 0.0043 -0.04633772)
(-0.008982929 0.0293 -0.04633772)
(-0.008492715 0.0293 -0.04643006)
(-0.008492715 0.0043 -0.04643006)
(-0.006541976 0.0043 -0.04674444)
(-0.006541976 0.0293 -0.04674444)
(-0.006048995 0.0293 -0.04681078)
(-0.006048995 0.0043 -0.04681078)
(-0.00386144 0.0043 -0.04423177)
(-0.00386144 0.0293 -0.04423177)
(-0.003363097 0.0293 -0.04427245)
(-0.003363097 0.0043 -0.04427245)
(-0.0015587 0.0043 -0.0499757)
(-0.0015587 0.0293 -0.0499757)
(-0.001058917 0.0293 -0.04998878)
(-0.001058917 0.0043 -0.04998878)
(0.001058943 0.0043 -0.04998878)
(0.001058943 0.0293 -0.04998878)
(0.001559229 0.0293 -0.04997568)
(0.001559229 0.0043 -0.04997568)
(0.003234448 0.0043 -0.04428392)
(0.003234448 0.0293 -0.04428392)
(0.003732907 0.0293 -0.04424469)
(0.003732907 0.0043 -0.04424469)
(0.005912112 0.0043 -0.04682866)
(0.005912112 0.0293 -0.04682866)
(0.006406683 0.0293 -0.04676357)
(0.006406683 0.0043 -0.04676357)
(0.008358201 0.0043 -0.04645406)
(0.008358201 0.0293 -0.04645406)
(0.008847294 0.0293 -0.0463634)
(0.008847294 0.0043 -0.0463634)
(0.01012172 0.0043 -0.0432309)
(0.01012172 0.0293 -0.0432309)
(0.0106079 0.0293 -0.04311418)
(0.0106079 0.0043 -0.04311418)
(0.01396088 0.0043 -0.04801139)
(0.01396088 0.0293 -0.04801139)
(0.01444029 0.0293 -0.04786938)
(0.01444029 0.0043 -0.04786938)
(0.01645447 0.0043 -0.04721494)
(0.01645447 0.0293 -0.04721494)
(0.0169258 0.0293 -0.04704803)
(0.0169258 0.0043 -0.04704803)
(0.01994694 0.0043 -0.04277803)
(0.01994694 0.0293 -0.04277803)
(0.01901161 0.0043 -0.03887891)
(0.01901161 0.0293 -0.03887891)
(0.02001061 0.0043 -0.03837327)
(0.02001061 0.0293 -0.03837327)
(0.02259425 0.0043 -0.0414408)
(0.02259425 0.0293 -0.0414408)
(0.02775207 0.0043 -0.04159113)
(0.02775207 0.0293 -0.04159113)
(0.02816655 0.0293 -0.04131156)
(0.02816655 0.0043 -0.04131156)
(0.02989074 0.0043 -0.04008171)
(0.02989074 0.0293 -0.04008171)
(0.03029042 0.0293 -0.03978053)
(0.03029042 0.0043 -0.03978053)
(0.02834902 0.0043 -0.03417397)
(0.02834902 0.0293 -0.03417397)
(0.02873204 0.0293 -0.03385258)
(0.02873204 0.0043 -0.03385258)
(0.03200668 0.0043 -0.03469076)
(0.03200668 0.0293 -0.03469076)
(0.03237152 0.0293 -0.03435057)
(0.03237152 0.0043 -0.03435057)
(0.03378056 0.0043 -0.03296534)
(0.03378056 0.0293 -0.03296534)
(0.03412608 0.0293 -0.03260751)
(0.03412608 0.0043 -0.03260751)
(0.03334456 0.0043 -0.02931724)
(0.03334456 0.0293 -0.02931724)
(0.03367259 0.0293 -0.02893988)
(0.03367259 0.0043 -0.02893988)
(0.03933611 0.0043 -0.03086536)
(0.03933611 0.0293 -0.03086536)
(0.03964276 0.0293 -0.0304705)
(0.03964276 0.0043 -0.0304705)
(0.04089756 0.0043 -0.02876439)
(0.04089756 0.0293 -0.02876439)
(0.04118341 0.0293 -0.0283536)
(0.04118341 0.0043 -0.0283536)
(0.03759076 0.0043 -0.02363181)
(0.03759076 0.0293 -0.02363181)
(0.03785448 0.0293 -0.02320701)
(0.03785448 0.0043 -0.02320701)
(0.04122723 0.0043 -0.02298244)
(0.04122723 0.0293 -0.02298244)
(0.04146781 0.0293 -0.02254545)
(0.04146781 0.0043 -0.02254545)
(0.04237472 0.0043 -0.02078996)
(0.04237472 0.0293 -0.02078996)
(0.04259146 0.0293 -0.02034224)
(0.04259146 0.0043 -0.02034224)
(0.04082305 0.0043 -0.01745964)
(0.04082305 0.0293 -0.01745964)
(0.04101707 0.0293 -0.01699882)
(0.04101707 0.0043 -0.01699882)
(0.02082885 0.0043 -0.007097819)
(0.02082885 0.0293 -0.007097819)
(0.02098474 0.0043 -0.00662275)
(0.02098474 0.0293 -0.00662275)
(0.02132152 0.0293 -0.005441775)
(0.02132152 0.0043 -0.005441775)
(0.02143965 0.0043 -0.004955931)
(0.02143965 0.0293 -0.004955931)
(0.02168274 0.0293 -0.0037522)
(0.02168274 0.0043 -0.0037522)
(0.02176239 0.0043 -0.003258589)
(0.02176239 0.0293 -0.003258589)
(0.0219103 0.0293 -0.002039354)
(0.0219103 0.0043 -0.002039354)
(0.02195098 0.0043 -0.001541011)
(0.02195098 0.0293 -0.001541011)
(0.02200358 0.0043 -0.0002499542)
(0.02200358 0.0293 -0.0002499542)
(0.02200358 0.0043 0.0002500377)
(0.02200358 0.0293 0.0002500377)
(0.02195537 0.0293 0.001477148)
(0.02195537 0.0043 0.001477148)
(0.02191614 0.0043 0.001975606)
(0.02191614 0.0293 0.001975606)
(0.0217718 0.0293 0.003195125)
(0.0217718 0.0043 0.003195125)
(0.02169358 0.0043 0.003688965)
(0.02169358 0.0293 0.003688965)
(0.02145398 0.0293 0.004893541)
(0.02145398 0.0043 0.004893541)
(0.02133726 0.0043 0.005379726)
(0.02133726 0.0293 0.005379726)
(0.0210039 0.0293 0.00656172)
(0.0210039 0.0043 0.00656172)
(0.0208494 0.0043 0.007037241)
(0.0208494 0.0293 0.007037241)
(0.01994341 0.0293 0.009299477)
(0.01994341 0.0043 0.009299477)
(0.03525082 0.0043 0.01643738)
(0.03525082 0.0293 0.01643738)
(0.04014646 0.0043 0.0187198)
(0.04014646 0.0293 0.0187198)
(0.0388771 0.0043 0.02121304)
(0.0388771 0.0293 0.02121304)
(0.03415113 0.0043 0.01860046)
(0.03415113 0.0293 0.01860046)
(0.01932023 0.0043 0.01053322)
(0.01932023 0.0293 0.01053322)
(0.01805861 0.0293 0.01257405)
(0.01805861 0.0043 0.01257405)
(0.01776826 0.0043 0.0129811)
(0.01776826 0.0293 0.0129811)
(0.01701642 0.0293 0.01395211)
(0.01701642 0.0043 0.01395211)
(0.01669503 0.0043 0.01433514)
(0.01669503 0.0293 0.01433514)
(0.01586934 0.0293 0.01524415)
(0.01586934 0.0043 0.01524415)
(0.01551889 0.0043 0.01560077)
(0.01551889 0.0293 0.01560077)
(0.01462433 0.0293 0.0164423)
(0.01462433 0.0043 0.0164423)
(0.01424697 0.0043 0.01677033)
(0.01424697 0.0293 0.01677033)
(0.01323808 0.0043 0.01757763)
(0.01323808 0.0293 0.01757763)
(0.0128353 0.0043 0.01787387)
(0.0128353 0.0293 0.01787387)
(0.01181819 0.0293 0.01856207)
(0.01181819 0.0043 0.01856207)
(0.0113934 0.0043 0.01882579)
(0.0113934 0.0293 0.01882579)
(0.01032546 0.0293 0.01943206)
(0.01032546 0.0043 0.01943206)
(0.009881287 0.0043 0.01966164)
(0.009881287 0.0293 0.01966164)
(0.008768939 0.0293 0.02018231)
(0.008768939 0.0043 0.02018231)
(0.008308121 0.0043 0.02037634)
(0.008308121 0.0293 0.02037634)
(0.00709782 0.0043 0.02082885)
(0.00709782 0.0293 0.02082885)
(0.00662275 0.0043 0.02098474)
(0.00662275 0.0293 0.02098474)
(0.005441775 0.0293 0.02132152)
(0.005441775 0.0043 0.02132152)
(0.004955932 0.0043 0.02143965)
(0.004955932 0.0293 0.02143965)
(0.0037522 0.0293 0.02168274)
(0.0037522 0.0043 0.02168274)
(0.003258589 0.0043 0.02176239)
(0.003258589 0.0293 0.02176239)
(0.002039354 0.0293 0.0219103)
(0.002039354 0.0043 0.0219103)
(0.001541011 0.0043 0.02195098)
(0.001541011 0.0293 0.02195098)
(0.0002499542 0.0043 0.02200358)
(0.0002499542 0.0293 0.02200358)
(-0.0002500377 0.0043 0.02200358)
(-0.0002500377 0.0293 0.02200358)
(-0.001477148 0.0293 0.02195537)
(-0.001477148 0.0043 0.02195537)
(-0.001975607 0.0043 0.02191614)
(-0.001975607 0.0293 0.02191614)
(-0.003195125 0.0293 0.0217718)
(-0.003195125 0.0043 0.0217718)
(-0.003688965 0.0043 0.02169358)
(-0.003688965 0.0293 0.02169358)
(-0.004893541 0.0293 0.02145398)
(-0.004893541 0.0043 0.02145398)
(-0.005379726 0.0043 0.02133726)
(-0.005379726 0.0293 0.02133726)
(-0.00656172 0.0293 0.0210039)
(-0.00656172 0.0043 0.0210039)
(-0.007037241 0.0043 0.0208494)
(-0.007037241 0.0293 0.0208494)
(-0.009299477 0.0293 0.01994341)
(-0.009299477 0.0043 0.01994341)
(-0.01643738 0.0043 0.03525082)
(-0.01643738 0.0293 0.03525082)
(-0.0187198 0.0043 0.04014646)
(-0.0187198 0.0293 0.04014646)
(-0.02121304 0.0043 0.0388771)
(-0.02121304 0.0293 0.0388771)
(-0.01860046 0.0043 0.03415113)
(-0.01860046 0.0293 0.03415113)
(-0.01053322 0.0043 0.01932023)
(-0.01053322 0.0293 0.01932023)
(-0.01257405 0.0293 0.01805861)
(-0.01257405 0.0043 0.01805861)
(-0.0129811 0.0043 0.01776826)
(-0.0129811 0.0293 0.01776826)
(-0.01395211 0.0293 0.01701642)
(-0.01395211 0.0043 0.01701642)
(-0.01433514 0.0043 0.01669503)
(-0.01433514 0.0293 0.01669503)
(-0.01524415 0.0293 0.01586934)
(-0.01524415 0.0043 0.01586934)
(-0.01560077 0.0043 0.01551889)
(-0.01560077 0.0293 0.01551889)
(-0.0164423 0.0293 0.01462432)
(-0.0164423 0.0043 0.01462432)
(-0.01677033 0.0043 0.01424697)
(-0.01677033 0.0293 0.01424697)
(-0.01757763 0.0043 0.01323808)
(-0.01757763 0.0293 0.01323808)
(-0.01787387 0.0043 0.0128353)
(-0.01787387 0.0293 0.0128353)
(-0.01856207 0.0293 0.01181819)
(-0.01856207 0.0043 0.01181819)
(-0.01882579 0.0043 0.0113934)
(-0.01882579 0.0293 0.0113934)
(-0.01943206 0.0293 0.01032546)
(-0.01943206 0.0043 0.01032546)
(-0.01966164 0.0043 0.009881286)
(-0.01966164 0.0293 0.009881286)
(-0.02018231 0.0293 0.008768939)
(-0.02018231 0.0043 0.008768939)
(-0.02037634 0.0043 0.00830812)
(-0.02037634 0.0293 0.00830812)
(-0.02082885 0.0043 0.007097819)
(-0.02082885 0.0293 0.007097819)
(-0.02098474 0.0043 0.00662275)
(-0.02098474 0.0293 0.00662275)
(-0.02132152 0.0293 0.005441775)
(-0.02132152 0.0043 0.005441775)
(-0.02143965 0.0043 0.004955931)
(-0.02143965 0.0293 0.004955931)
(-0.02168274 0.0293 0.0037522)
(-0.02168274 0.0043 0.0037522)
(-0.02176239 0.0043 0.003258589)
(-0.02176239 0.0293 0.003258589)
(-0.02191029 0.0293 0.002039354)
(-0.02191029 0.0043 0.002039354)
(-0.02195098 0.0043 0.001541011)
(-0.02195098 0.0293 0.001541011)
(-0.02200358 0.0043 0.0002499542)
(-0.02200358 0.0293 0.0002499542)
(-0.02200358 0.0043 -0.0002500377)
(-0.02200358 0.0293 -0.0002500377)
(-0.02195537 0.0293 -0.001477148)
(-0.02195537 0.0043 -0.001477148)
(-0.02191614 0.0043 -0.001975606)
(-0.02191614 0.0293 -0.001975606)
(-0.0217718 0.0293 -0.003195125)
(-0.0217718 0.0043 -0.003195125)
(-0.02169358 0.0043 -0.003688965)
(-0.02169358 0.0293 -0.003688965)
(-0.02145398 0.0293 -0.004893541)
(-0.02145398 0.0043 -0.004893541)
(-0.02133726 0.0043 -0.005379726)
(-0.02133726 0.0293 -0.005379726)
(-0.0210039 0.0293 -0.00656172)
(-0.0210039 0.0043 -0.00656172)
(-0.02084939 0.0043 -0.00703724)
(-0.02084939 0.0293 -0.00703724)
(-0.01994341 0.0293 -0.009299477)
(-0.01994341 0.0043 -0.009299477)
(-0.03525082 0.0043 -0.01643738)
(-0.03525082 0.0293 -0.01643738)
(-0.04014646 0.0043 -0.0187198)
(-0.04014646 0.0293 -0.0187198)
(-0.0388771 0.0043 -0.02121304)
(-0.0388771 0.0293 -0.02121304)
(-0.03415113 0.0043 -0.01860046)
(-0.03415113 0.0293 -0.01860046)
(-0.01932023 0.0043 -0.01053322)
(-0.01932023 0.0293 -0.01053322)
(-0.01805861 0.0293 -0.01257405)
(-0.01805861 0.0043 -0.01257405)
(-0.01776826 0.0043 -0.0129811)
(-0.01776826 0.0293 -0.0129811)
(-0.01701642 0.0293 -0.01395211)
(-0.01701642 0.0043 -0.01395211)
(-0.01669502 0.0043 -0.01433514)
(-0.01669502 0.0293 -0.01433514)
(-0.01586934 0.0293 -0.01524415)
(-0.01586934 0.0043 -0.01524415)
(-0.01551889 0.0043 -0.01560077)
(-0.01551889 0.0293 -0.01560077)
(-0.01462432 0.0293 -0.0164423)
(-0.01462432 0.0043 -0.0164423)
(-0.01424697 0.0043 -0.01677033)
(-0.01424697 0.0293 -0.01677033)
(-0.01323808 0.0043 -0.01757763)
(-0.01323808 0.0293 -0.01757763)
(-0.0128353 0.0043 -0.01787387)
(-0.0128353 0.0293 -0.01787387)
(-0.01181819 0.0293 -0.01856207)
(-0.01181819 0.0043 -0.01856207)
(-0.0113934 0.0043 -0.01882579)
(-0.0113934 0.0293 -0.01882579)
(-0.01032546 0.0293 -0.01943206)
(-0.01032546 0.0043 -0.01943206)
(-0.009881286 0.0043 -0.01966164)
(-0.009881286 0.0293 -0.01966164)
(-0.008768938 0.0293 -0.02018231)
(-0.008768938 0.0043 -0.02018231)
(-0.00830812 0.0043 -0.02037634)
(-0.00830812 0.0293 -0.02037634)
(-0.007097819 0.0043 -0.02082885)
(-0.007097819 0.0293 -0.02082885)
(-0.00662275 0.0043 -0.02098474)
(-0.00662275 0.0293 -0.02098474)
(-0.005441774 0.0293 -0.02132152)
(-0.005441774 0.0043 -0.02132152)
(-0.004955931 0.0043 -0.02143965)
(-0.004955931 0.0293 -0.02143965)
(-0.003752199 0.0293 -0.02168273)
(-0.003752199 0.0043 -0.02168273)
(-0.003258589 0.0043 -0.02176239)
(-0.003258589 0.0293 -0.02176239)
(-0.002039353 0.0293 -0.02191029)
(-0.002039353 0.0043 -0.02191029)
(-0.001541011 0.0043 -0.02195097)
(-0.001541011 0.0293 -0.02195097)
(-0.0002499542 0.0043 -0.02200358)
(-0.0002499542 0.0293 -0.02200358)
(0.0002500377 0.0043 -0.02200358)
(0.0002500377 0.0293 -0.02200358)
(0.001477148 0.0293 -0.02195536)
(0.001477148 0.0043 -0.02195536)
(0.001975606 0.0043 -0.02191613)
(0.001975606 0.0293 -0.02191613)
(0.003195125 0.0293 -0.0217718)
(0.003195125 0.0043 -0.0217718)
(0.003688965 0.0043 -0.02169358)
(0.003688965 0.0293 -0.02169358)
(0.004893541 0.0293 -0.02145398)
(0.004893541 0.0043 -0.02145398)
(0.005379726 0.0043 -0.02133726)
(0.005379726 0.0293 -0.02133726)
(0.006561719 0.0293 -0.0210039)
(0.006561719 0.0043 -0.0210039)
(0.00703724 0.0043 -0.02084939)
(0.00703724 0.0293 -0.02084939)
(0.009299477 0.0293 -0.01994341)
(0.009299477 0.0043 -0.01994341)
(0.01643738 0.0043 -0.03525082)
(0.01643738 0.0293 -0.03525082)
(0.0187198 0.0043 -0.04014646)
(0.0187198 0.0293 -0.04014646)
(0.02121304 0.0043 -0.0388771)
(0.02121304 0.0293 -0.0388771)
(0.01860046 0.0043 -0.03415113)
(0.01860046 0.0293 -0.03415113)
(0.01053322 0.0043 -0.01932023)
(0.01053322 0.0293 -0.01932023)
(0.01257405 0.0293 -0.01805861)
(0.01257405 0.0043 -0.01805861)
(0.0129811 0.0043 -0.01776826)
(0.0129811 0.0293 -0.01776826)
(0.01395211 0.0293 -0.01701642)
(0.01395211 0.0043 -0.01701642)
(0.01433514 0.0043 -0.01669502)
(0.01433514 0.0293 -0.01669502)
(0.01524415 0.0293 -0.01586934)
(0.01524415 0.0043 -0.01586934)
(0.01560077 0.0043 -0.01551889)
(0.01560077 0.0293 -0.01551889)
(0.0164423 0.0293 -0.01462432)
(0.0164423 0.0043 -0.01462432)
(0.01677033 0.0043 -0.01424697)
(0.01677033 0.0293 -0.01424697)
(0.01757763 0.0043 -0.01323808)
(0.01757763 0.0293 -0.01323808)
(0.01787387 0.0043 -0.0128353)
(0.01787387 0.0293 -0.0128353)
(0.01856207 0.0293 -0.01181819)
(0.01856207 0.0043 -0.01181819)
(0.01882579 0.0043 -0.0113934)
(0.01882579 0.0293 -0.0113934)
(0.01943206 0.0293 -0.01032546)
(0.01943206 0.0043 -0.01032546)
(0.01966164 0.0043 -0.009881286)
(0.01966164 0.0293 -0.009881286)
(0.02018231 0.0293 -0.008768939)
(0.02018231 0.0043 -0.008768939)
(0.02037634 0.0043 -0.00830812)
(0.02037634 0.0293 -0.00830812)
(-0.0175 0.0293 -3.840846e-12)
(-0.01747146 0.0293 0.0009990542)
(-0.01747146 0.0293 -0.0009990542)
(-0.01738593 0.0293 -0.00199485)
(-0.01724369 0.0293 -0.002984138)
(-0.01704521 0.0293 -0.003963694)
(-0.01679113 0.0293 -0.00493032)
(-0.01648228 0.0293 -0.005880864)
(-0.01611966 0.0293 -0.006812227)
(-0.01570447 0.0293 -0.007721369)
(-0.01523806 0.0293 -0.008605327)
(-0.01472194 0.0293 -0.009461215)
(-0.0141578 0.0293 -0.01028624)
(-0.01354748 0.0293 -0.01107772)
(-0.01289297 0.0293 -0.01183306)
(-0.01219641 0.0293 -0.01254981)
(-0.01146006 0.0293 -0.01322562)
(-0.01068634 0.0293 -0.01385829)
(-0.009877756 0.0293 -0.01444576)
(-0.009036955 0.0293 -0.01498611)
(-0.008166678 0.0293 -0.01547758)
(-0.007269763 0.0293 -0.01591856)
(-0.006349135 0.0293 -0.01630762)
(-0.005407797 0.0293 -0.01664349)
(-0.004448821 0.0293 -0.01692507)
(-0.003475333 0.0293 -0.01715145)
(-0.00249051 0.0293 -0.01732188)
(-0.001497563 0.0293 -0.01743581)
(-0.0004997309 0.0293 -0.01749286)
(0.0004997309 0.0293 -0.01749286)
(0.001497563 0.0293 -0.01743581)
(0.00249051 0.0293 -0.01732188)
(0.003475333 0.0293 -0.01715145)
(0.004448821 0.0293 -0.01692507)
(0.005407797 0.0293 -0.01664349)
(0.006349135 0.0293 -0.01630762)
(0.007269763 0.0293 -0.01591856)
(0.008166678 0.0293 -0.01547758)
(0.009036955 0.0293 -0.01498611)
(0.009877756 0.0293 -0.01444576)
(0.01068634 0.0293 -0.01385829)
(0.01146006 0.0293 -0.01322562)
(0.01219641 0.0293 -0.01254981)
(0.01289297 0.0293 -0.01183306)
(0.01354748 0.0293 -0.01107772)
(0.0141578 0.0293 -0.01028624)
(0.01472194 0.0293 -0.009461215)
(0.01523806 0.0293 -0.008605327)
(0.01570447 0.0293 -0.007721369)
(0.01611966 0.0293 -0.006812227)
(0.01648228 0.0293 -0.005880864)
(0.01679113 0.0293 -0.00493032)
(0.01704521 0.0293 -0.003963694)
(0.01724369 0.0293 -0.002984138)
(0.01738593 0.0293 -0.00199485)
(0.01747146 0.0293 -0.0009990542)
(0.0175 0.0293 -3.840849e-12)
(0.01747146 0.0293 0.0009990542)
(0.01738593 0.0293 0.00199485)
(0.01724369 0.0293 0.002984138)
(0.01704521 0.0293 0.003963694)
(0.01679113 0.0293 0.00493032)
(0.01648228 0.0293 0.005880864)
(0.01611966 0.0293 0.006812227)
(0.01570447 0.0293 0.007721369)
(0.01523806 0.0293 0.008605327)
(0.01472194 0.0293 0.009461215)
(0.0141578 0.0293 0.01028624)
(0.01354748 0.0293 0.01107772)
(0.01289297 0.0293 0.01183306)
(0.01219641 0.0293 0.01254981)
(0.01146006 0.0293 0.01322562)
(0.01068634 0.0293 0.01385829)
(0.009877756 0.0293 0.01444576)
(0.009036955 0.0293 0.01498611)
(0.008166678 0.0293 0.01547758)
(0.007269763 0.0293 0.01591856)
(0.006349135 0.0293 0.01630762)
(0.005407797 0.0293 0.01664349)
(0.004448821 0.0293 0.01692507)
(0.003475333 0.0293 0.01715145)
(0.00249051 0.0293 0.01732188)
(0.001497563 0.0293 0.01743581)
(0.0004997309 0.0293 0.01749286)
(-0.0004997309 0.0293 0.01749286)
(-0.001497563 0.0293 0.01743581)
(-0.00249051 0.0293 0.01732188)
(-0.003475333 0.0293 0.01715145)
(-0.004448821 0.0293 0.01692507)
(-0.005407797 0.0293 0.01664349)
(-0.006349135 0.0293 0.01630762)
(-0.007269763 0.0293 0.01591856)
(-0.008166678 0.0293 0.01547758)
(-0.009036955 0.0293 0.01498611)
(-0.009877756 0.0293 0.01444576)
(-0.01068634 0.0293 0.01385829)
(-0.01146006 0.0293 0.01322562)
(-0.01219641 0.0293 0.01254981)
(-0.01289297 0.0293 0.01183306)
(-0.01354748 0.0293 0.01107772)
(-0.0141578 0.0293 0.01028624)
(-0.01472194 0.0293 0.009461215)
(-0.01523806 0.0293 0.008605327)
(-0.01570447 0.0293 0.007721369)
(-0.01611966 0.0293 0.006812227)
(-0.01648228 0.0293 0.005880864)
(-0.01679113 0.0293 0.00493032)
(-0.01704521 0.0293 0.003963694)
(-0.01724369 0.0293 0.002984138)
(-0.01738593 0.0293 0.00199485)
(-0.0175 0.0043 -3.840846e-12)
(-0.01747146 0.0043 -0.0009990542)
(-0.01747146 0.0043 0.0009990542)
(-0.01738593 0.0043 0.00199485)
(-0.01724369 0.0043 0.002984138)
(-0.01704521 0.0043 0.003963694)
(-0.01679113 0.0043 0.00493032)
(-0.01648228 0.0043 0.005880864)
(-0.01611966 0.0043 0.006812227)
(-0.01570447 0.0043 0.007721369)
(-0.01523806 0.0043 0.008605327)
(-0.01472194 0.0043 0.009461215)
(-0.0141578 0.0043 0.01028624)
(-0.01354748 0.0043 0.01107772)
(-0.01289297 0.0043 0.01183306)
(-0.01219641 0.0043 0.01254981)
(-0.01146006 0.0043 0.01322562)
(-0.01068634 0.0043 0.01385829)
(-0.009877756 0.0043 0.01444576)
(-0.009036955 0.0043 0.01498611)
(-0.008166678 0.0043 0.01547758)
(-0.007269763 0.0043 0.01591856)
(-0.006349135 0.0043 0.01630762)
(-0.005407797 0.0043 0.01664349)