FoamFile
{
	version		2.0;
	class		dictionary;
	format		ascii;
	object		thermophysicalProperties;
}

thermoType
{
    type            heSolidThermo;
    mixture         pureMixture;
    transport       constIso;
    thermo          hConst;
    equationOfState rhoConst;
    specie          specie;
    energy          sensibleEnthalpy;
}

mixture
{
	specie
	{
		molWeight	63.546;
	}

	transport
	{
		kappa		390;
	}

	thermodynamics
	{
		Cp	385;
		Hf	0;
	}
	
	equationOfState
	{
		rho	8940;
	}
}