FoamFile
{
    version 2.0; format ascii; class dictionary; object blockMeshDict;
}
// * * * * * * * * * * * * * * * * * * * * * * * * * * * * * * * * * * * * * * //

scale 0.001;

vertices
(
    (0.500000 3.300000 0.000000)
    (0.500000 28.300000 0.000000)
    (17.500000 3.300000 0.000000)
    (17.500000 28.300000 0.000000)
    (0.000000 3.300000 0.500000)
    (0.000000 28.300000 0.500000)
    (0.000000 3.300000 17.500000)
    (0.000000 28.300000 17.500000)
    (-0.500000 3.300000 0.000000)
    (-0.500000 28.300000 0.000000)
    (-17.500000 3.300000 0.000000)
    (-17.500000 28.300000 0.000000)
    (-0.000000 3.300000 -0.500000)
    (-0.000000 28.300000 -0.500000)
    (-0.000000 3.300000 -17.500000)
    (-0.000000 28.300000 -17.500000)
);

blocks
(
    hex (2 0 4 6 3 1 5 7) (20 15 10) simpleGrading (0.034130 1 1)
    hex (6 4 8 10 7 5 9 11) (20 15 10) simpleGrading (0.034130 1 1)
    hex (10 8 12 14 11 9 13 15) (20 15 10) simpleGrading (0.034130 1 1)
    hex (14 12 0 2 15 13 1 3) (20 15 10) simpleGrading (0.034130 1 1)
);

edges
(
    arc 0 4 (0.353553 3.300000 0.353553)
    arc 1 5 (0.353553 28.300000 0.353553)
    arc 2 6 (12.374369 3.300000 12.374369)
    arc 3 7 (12.374369 28.300000 12.374369)
    arc 4 8 (-0.353553 3.300000 0.353553)
    arc 5 9 (-0.353553 28.300000 0.353553)
    arc 6 10 (-12.374369 3.300000 12.374369)
    arc 7 11 (-12.374369 28.300000 12.374369)
    arc 8 12 (-0.353553 3.300000 -0.353553)
    arc 9 13 (-0.353553 28.300000 -0.353553)
    arc 10 14 (-12.374369 3.300000 -12.374369)
    arc 11 15 (-12.374369 28.300000 -12.374369)
    arc 12 0 (0.353553 3.300000 -0.353553)
    arc 13 1 (0.353553 28.300000 -0.353553)
    arc 14 2 (12.374369 3.300000 -12.374369)
    arc 15 3 (12.374369 28.300000 -12.374369)
);

boundary
(
    core_hole                   // r = 0.5 mm  axis void -> adiabatic
    {
        type wall;
        faces (
            (0 1 5 4)
            (4 5 9 8)
            (8 9 13 12)
            (12 13 1 0)
        );
    }
    core_to_fins               // r = 17.5 mm -> mappedWall to fins
    {
        type wall;
        faces (
            (2 6 7 3)
            (6 10 11 7)
            (10 14 15 11)
            (14 2 3 15)
        );
    }
    core_to_ihs                 // y = 3.3 mm -> mappedWall to IHS (square->round seam)
    {
        type wall;
        faces (
            (0 2 6 4)
            (4 6 10 8)
            (8 10 14 12)
            (12 14 2 0)
        );
    }
    core_top                    // y = 28.3 mm
    {
        type wall;
        faces (
            (1 3 7 5)
            (5 7 11 9)
            (9 11 15 13)
            (13 15 3 1)
        );
    }
);

mergePatchPairs ( );
// ************************************************************************* //
