FoamFile
{
    version     2.0;
    format      ascii;
    class       dictionary;
    object      blockMeshDict;
}

scale 0.001;

vertices
(
    // ===== LEVEL 0: Bottom (y=3.3) =====
    ( 0.5 3.3 0)(0 3.3 0.5)(-0.5 3.3 0)(0 3.3 -0.5)            // 0-3   hole
    ( 17.5 3.3 0)(0 3.3 17.5)(-17.5 3.3 0)(0 3.3 -17.5)        // 4-7   inner
    ( 50 3.3 0)(0 3.3 50)(-50 3.3 0)(0 3.3 -50)                // 8-11  mid
    ( 65 3.3 0)(0 3.3 65)(-65 3.3 0)(0 3.3 -65)                // 12-15 outer

    // ===== LEVEL 1: Top of Solid Core (y=28.3) =====
    ( 0.5 28.3 0)(0 28.3 0.5)(-0.5 28.3 0)(0 28.3 -0.5)        // 16-19 hole
    ( 17.5 28.3 0)(0 28.3 17.5)(-17.5 28.3 0)(0 28.3 -17.5)    // 20-23 inner
    ( 50 28.3 0)(0 28.3 50)(-50 28.3 0)(0 28.3 -50)            // 24-27 mid
    ( 65 28.3 0)(0 28.3 65)(-65 28.3 0)(0 28.3 -65)            // 28-31 outer

    // ===== LEVEL 2: Fin Shoulder (y=29.3) =====
    ( 0.5 29.3 0)(0 29.3 0.5)(-0.5 29.3 0)(0 29.3 -0.5)        // 32-35 hole
    ( 17.5 29.3 0)(0 29.3 17.5)(-17.5 29.3 0)(0 29.3 -17.5)    // 36-39 inner
    ( 50 29.3 0)(0 29.3 50)(-50 29.3 0)(0 29.3 -50)            // 40-43 mid
    ( 65 29.3 0)(0 29.3 65)(-65 29.3 0)(0 29.3 -65)            // 44-47 outer

    // ===== LEVEL 3: Plenum Top (y=50.3) =====
    ( 0.5 50.3 0)(0 50.3 0.5)(-0.5 50.3 0)(0 50.3 -0.5)        // 48-51 hole
    ( 17.5 50.3 0)(0 50.3 17.5)(-17.5 50.3 0)(0 50.3 -17.5)    // 52-55 inner
    ( 50 50.3 0)(0 50.3 50)(-50 50.3 0)(0 50.3 -50)            // 56-59 mid
);

blocks
(
    // ===== LOWER SECTION (y=3.3 to 28.3) | Ny=9 =====
    // Mid Ring (r=17.5 to 50)
    hex (9 8 4 5 25 24 20 21) (180 16 9) simpleGrading (1 1 1)
    hex (10 9 5 6 26 25 21 22) (180 16 9) simpleGrading (1 1 1)
    hex (11 10 6 7 27 26 22 23) (180 16 9) simpleGrading (1 1 1)
    hex (8 11 7 4 24 27 23 20) (180 16 9) simpleGrading (1 1 1)

    // Outer Ring (r=50 to 65)
    hex (13 12 8 9 29 28 24 25) (180 6 9) simpleGrading (1 1 1)
    hex (14 13 9 10 30 29 25 26) (180 6 9) simpleGrading (1 1 1)
    hex (15 14 10 11 31 30 26 27) (180 6 9) simpleGrading (1 1 1)
    hex (12 15 11 8 28 31 27 24) (180 6 9) simpleGrading (1 1 1)

    // ===== GAP OVER CORE (y=28.3 to 29.3) | Ny=1 =====
    // Inner Ring (r=0.5 to 17.5) -> The missing gap
    hex (21 20 16 17 37 36 32 33) (180 15 1) simpleGrading (1 0.034130 1)
    hex (22 21 17 18 38 37 33 34) (180 15 1) simpleGrading (1 0.034130 1)
    hex (23 22 18 19 39 38 34 35) (180 15 1) simpleGrading (1 0.034130 1)
    hex (20 23 19 16 36 39 35 32) (180 15 1) simpleGrading (1 0.034130 1)

    // Mid Ring (r=17.5 to 50)
    hex (25 24 20 21 41 40 36 37) (180 16 1) simpleGrading (1 1 1)
    hex (26 25 21 22 42 41 37 38) (180 16 1) simpleGrading (1 1 1)
    hex (27 26 22 23 43 42 38 39) (180 16 1) simpleGrading (1 1 1)
    hex (24 27 23 20 40 43 39 36) (180 16 1) simpleGrading (1 1 1)

    // Outer Ring (r=50 to 65)
    hex (29 28 24 25 45 44 40 41) (180 6 1) simpleGrading (1 1 1)
    hex (30 29 25 26 46 45 41 42) (180 6 1) simpleGrading (1 1 1)
    hex (31 30 26 27 47 46 42 43) (180 6 1) simpleGrading (1 1 1)
    hex (28 31 27 24 44 47 43 40) (180 6 1) simpleGrading (1 1 1)

    // ===== PLENUM SECTION (y=29.3 to 50.3) | Ny=8 =====
    // Inner Ring (r=0.5 to 17.5) -> Full cylinder mesh
    hex (37 36 32 33 53 52 48 49) (180 15 8) simpleGrading (1 0.034130 1)
    hex (38 37 33 34 54 53 49 50) (180 15 8) simpleGrading (1 0.034130 1)
    hex (39 38 34 35 55 54 50 51) (180 15 8) simpleGrading (1 0.034130 1)
    hex (36 39 35 32 52 55 51 48) (180 15 8) simpleGrading (1 0.034130 1)

    // Mid Ring (r=17.5 to 50)
    hex (41 40 36 37 57 56 52 53) (180 16 8) simpleGrading (1 1 1)
    hex (42 41 37 38 58 57 53 54) (180 16 8) simpleGrading (1 1 1)
    hex (43 42 38 39 59 58 54 55) (180 16 8) simpleGrading (1 1 1)
    hex (40 43 39 36 56 59 55 52) (180 16 8) simpleGrading (1 1 1)
);

edges
(
    // Level 0 Arcs (y=3.3)
    arc 4 5 ( 12.374 3.3 12.374) arc 5 6 (-12.374 3.3 12.374)
    arc 6 7 (-12.374 3.3 -12.374) arc 7 4 ( 12.374 3.3 -12.374)
    arc 8 9 ( 35.355 3.3 35.355) arc 9 10 (-35.355 3.3 35.355)
    arc 10 11 (-35.355 3.3 -35.355) arc 11 8 ( 35.355 3.3 -35.355)
    arc 12 13 ( 45.962 3.3 45.962) arc 13 14 (-45.962 3.3 45.962)
    arc 14 15 (-45.962 3.3 -45.962) arc 15 12 ( 45.962 3.3 -45.962)

    // Level 1 Arcs (y=28.3)
    arc 16 17 ( 0.35355 28.3 0.35355) arc 17 18 (-0.35355 28.3 0.35355)
    arc 18 19 (-0.35355 28.3 -0.35355) arc 19 16 ( 0.35355 28.3 -0.35355)
    arc 20 21 ( 12.374 28.3 12.374) arc 21 22 (-12.374 28.3 12.374)
    arc 22 23 (-12.374 28.3 -12.374) arc 23 20 ( 12.374 28.3 -12.374)
    arc 24 25 ( 35.355 28.3 35.355) arc 25 26 (-35.355 28.3 35.355)
    arc 26 27 (-35.355 28.3 -35.355) arc 27 24 ( 35.355 28.3 -35.355)
    arc 28 29 ( 45.962 28.3 45.962) arc 29 30 (-45.962 28.3 45.962)
    arc 30 31 (-45.962 28.3 -45.962) arc 31 28 ( 45.962 28.3 -45.962)

    // Level 2 Arcs (y=29.3)
    arc 32 33 ( 0.35355 29.3 0.35355) arc 33 34 (-0.35355 29.3 0.35355)
    arc 34 35 (-0.35355 29.3 -0.35355) arc 35 32 ( 0.35355 29.3 -0.35355)
    arc 36 37 ( 12.374 29.3 12.374) arc 37 38 (-12.374 29.3 12.374)
    arc 38 39 (-12.374 29.3 -12.374) arc 39 36 ( 12.374 29.3 -12.374)
    arc 40 41 ( 35.355 29.3 35.355) arc 41 42 (-35.355 29.3 35.355)
    arc 42 43 (-35.355 29.3 -35.355) arc 43 40 ( 35.355 29.3 -35.355)
    arc 44 45 ( 45.962 29.3 45.962) arc 45 46 (-45.962 29.3 45.962)
    arc 46 47 (-45.962 29.3 -45.962) arc 47 44 ( 45.962 29.3 -45.962)

    // Level 3 Arcs (y=50.3)
    arc 48 49 ( 0.35355 50.3 0.35355) arc 49 50 (-0.35355 50.3 0.35355)
    arc 50 51 (-0.35355 50.3 -0.35355) arc 51 48 ( 0.35355 50.3 -0.35355)
    arc 52 53 ( 12.374 50.3 12.374) arc 53 54 (-12.374 50.3 12.374)
    arc 54 55 (-12.374 50.3 -12.374) arc 55 52 ( 12.374 50.3 -12.374)
    arc 56 57 ( 35.355 50.3 35.355) arc 57 58 (-35.355 50.3 35.355)
    arc 58 59 (-35.355 50.3 -35.355) arc 59 56 ( 35.355 50.3 -35.355)
);

boundary
(
    fins_to_core          // r=17.5 lower side (y3.3->28.3)
    { type wall; faces ((4 20 21 5)(5 21 22 6)(6 22 23 7)(7 23 20 4)); }

    core_top                // y=28.3 top of the core (r=0.5 to 17.5) -> The fluid gap bottom
    { type wall; faces ((16 20 21 17)(17 21 22 18)(18 22 23 19)(19 23 20 16)); }

    outerRim                // r=65 shroud (y3.3->29.3) -> Spans both 3.3-28.3 and 28.3-29.3 layers
    { type patch; faces ((12 28 29 13)(13 29 30 14)(14 30 31 15)(15 31 28 12)
                        (28 44 45 29)(29 45 46 30)(30 46 47 31)(31 47 44 28)); }

    bottom                  // y=3.3 (IHS top, sealed)
    { type wall; faces ((4 8 9 5)(5 9 10 6)(6 10 11 7)(7 11 8 4)
                        (8 12 13 9)(9 13 14 10)(10 14 15 11)(11 15 12 8)); }

    shoulder                // y=29.3 (r50->65) -> The step inward
    { type wall; faces ((40 44 45 41)(41 45 46 42)(42 46 47 43)(43 47 44 40)); }

    plenum_wall             // r=50 (y29.3->50.3) -> Outer wall of the upper plenum
    { type wall; faces ((40 56 57 41)(41 57 58 42)(42 58 59 43)(43 59 56 40)); }

    plenum_hole             // r=0.5 (y28.3->50.3) -> The void at the center axis
    { type wall; faces ((16 32 33 17)(17 33 34 18)(18 34 35 19)(19 35 32 16)
                        (32 48 49 33)(33 49 50 34)(34 50 51 35)(35 51 48 32)); }

    plenum_top              // y=50.3 inlet -> Full disk from 0.5 to 50
    { type patch; faces ((48 52 53 49)(49 53 54 50)(50 54 55 51)(51 55 52 48)
                         (52 56 57 53)(53 57 58 54)(54 58 59 55)(55 59 56 52)); }
);

mergePatchPairs ( );