FoamFile
{
    version     2.0;
    format      ascii;
    class       dictionary;
    object      thermophysicalProperties;
}

thermoType
{
    type            heSolidThermo;
    mixture         pureMixture;
    transport       constIso;
    thermo          hConst;
    equationOfState rhoConst;
    specie          specie;
    energy          sensibleEnthalpy;
}

mixture
{
    specie
    {
        molWeight       28.085;
    }

    transport
    {
        kappa           100;
    }

    thermodynamics
    {
        Cp              712;
        Hf              0;
    }
    
    equationOfState
    {
        rho             2330;
    }
}
