FoamFile
{
    version     2.0;
    format      ascii;
    class       dictionary;
    object      fvSolution;
}
// * * * * * * * * * * * * * * * * * * * * * * * * * * * * * * * * * * * * * //

solvers
{
    h
    {
        solver          PCG;
        preconditioner  DIC;
        tolerance       1e-07;
        relTol          0.01;
    }
}

SIMPLE
{
    nNonOrthogonalCorrectors 2;        
}

relaxationFactors
{
    equations
    {
        h               0.99;
    }
}

// ************************************************************************* //
